units(length='cm', time='s', quantity='mol', act_energy='kcal/mol')

ideal_gas(name='gas',
          elements="H D T C Ci O Oi N Ne Ar He Si S F Cl Br I X",
          species="""He          Ar          Ne          O2(2)
                     H2O(3)      N2(4)       NO(5)       NH3(6)
                     N2O(7)      O(19)       CO(20)      CO2(22)
                     H(24)       H2(26)      OH(27)      COOH(28)
                     N(30)       NH2(31)     NH(32)      NO2(33)
                     HCN(35)     CN(37)      CH2O(40)    HCO(42)
                     C(44)       C2N2(46)    N2O2(105)   NH2NO(110)
                     HONO(123)   ONOOH(137)  ONONO(180)  ONOOJ(228)
                     NO2OH(329)  NO2NO(421)  HN2O(724)   HNNOH(733)
                     HO2(935)""",
          reactions='gas-*',
          transport='Mix',
          initial_state=state(temperature=300.0, pressure=OneAtm))

ideal_interface(name='surface1',
                elements="H D T C Ci O Oi N Ne Ar He Si S F Cl Br I X",
                species="""X(1)        NH3_X(8)    O_X(9)      NH2_X(10)
                          OH_X(11)    NH_X(12)    N_X(13)     NO_X(14)
                          NHO_X(15)   N2O_X(16)   N2_X(17)    H2O_X(18)
                          CO_X(21)    CO2_X(23)   H_X(25)     COOH_X(29)
                          NO2_X(34)   HCN_X(36)   CN_X(38)    C_X(39)
                          CH2O_X(41)  HCO_X(43)   N2O_X(45)   C2N2_X(47)
                          H2_ads(75)  O2_ads(94)  NOX2(98)    HONO(645)
                          HNNOH(877)  SX(1125)""",
                site_density=2.483e-09,
                phases="gas",
          reactions='surface1-*',
                initial_state=state(temperature=300.0, pressure=OneAtm))

#-------------------------------------------------------------------------------
# Element data
#-------------------------------------------------------------------------------

element(symbol='Ci', atomic_mass=13.003)
element(symbol='D', atomic_mass=2.014)
element(symbol='Oi', atomic_mass=17.999)
element(symbol='T', atomic_mass=3.016)
element(symbol='X', atomic_mass=195.083)
#-------------------------------------------------------------------------------
# Species data
#-------------------------------------------------------------------------------

species(name='He',
        atoms='He:1',
        thermo=(NASA([200.00, 1000.00],
                     [ 2.50000000E+00,  0.00000000E+00,  0.00000000E+00,
                       0.00000000E+00,  0.00000000E+00, -7.45375000E+02,
                       9.28724000E-01]),
                NASA([1000.00, 6000.00],
                     [ 2.50000000E+00,  0.00000000E+00,  0.00000000E+00,
                       0.00000000E+00,  0.00000000E+00, -7.45375000E+02,
                       9.28724000E-01])),
        transport=gas_transport(geom='atom',
                                diam=2.576,
                                well_depth=10.2))

species(name='Ar',
        atoms='Ar:1',
        thermo=(NASA([200.00, 1000.00],
                     [ 2.50000000E+00,  0.00000000E+00,  0.00000000E+00,
                       0.00000000E+00,  0.00000000E+00, -7.45375000E+02,
                       4.37967000E+00]),
                NASA([1000.00, 6000.00],
                     [ 2.50000000E+00,  0.00000000E+00,  0.00000000E+00,
                       0.00000000E+00,  0.00000000E+00, -7.45375000E+02,
                       4.37967000E+00])),
        transport=gas_transport(geom='atom',
                                diam=3.33,
                                well_depth=136.501))

species(name='Ne',
        atoms='Ne:1',
        thermo=(NASA([200.00, 1000.00],
                     [ 2.50000000E+00,  0.00000000E+00,  0.00000000E+00,
                       0.00000000E+00,  0.00000000E+00, -7.45375000E+02,
                       3.35532000E+00]),
                NASA([1000.00, 6000.00],
                     [ 2.50000000E+00,  0.00000000E+00,  0.00000000E+00,
                       0.00000000E+00,  0.00000000E+00, -7.45375000E+02,
                       3.35532000E+00])),
        transport=gas_transport(geom='atom',
                                diam=3.758,
                                well_depth=148.6))

species(name='O2(2)',
        atoms='O:2',
        thermo=(NASA([100.00, 1074.56],
                     [ 3.53732118E+00, -1.21570207E-03,  5.31615377E-06,
                      -4.89440387E-09,  1.45843816E-12, -1.03858843E+03,
                       4.68368631E+00]),
                NASA([1074.56, 5000.00],
                     [ 3.15382772E+00,  1.67803228E-03, -7.69967779E-07,
                       1.51273960E-10, -1.08781182E-14, -1.04082030E+03,
                       6.16751919E+00])),
        transport=gas_transport(geom='linear',
                                diam=3.467,
                                well_depth=106.7))

species(name='H2O(3)',
        atoms='H:2 O:1',
        thermo=(NASA([100.00, 1130.25],
                     [ 4.05763720E+00, -7.87951343E-04,  2.90882564E-06,
                      -1.47524910E-09,  2.12866372E-13, -3.02815867E+04,
                      -3.11369025E-01]),
                NASA([1130.25, 5000.00],
                     [ 2.84324104E+00,  2.75110073E-03, -7.81040007E-07,
                       1.07245603E-10, -5.79408217E-15, -2.99586086E+04,
                       5.91047337E+00])),
        transport=gas_transport(geom='nonlinear',
                                diam=2.641,
                                well_depth=809.102,
                                polar=1.76,
                                rot_relax=4.0))

species(name='N2(4)',
        atoms='N:2',
        thermo=(NASA([200.00, 1000.00],
                     [ 3.53101000E+00, -1.23661000E-04, -5.02999000E-07,
                       2.43531000E-09, -1.40881000E-12, -1.04698000E+03,
                       2.96747000E+00]),
                NASA([1000.00, 6000.00],
                     [ 2.95258000E+00,  1.39690000E-03, -4.92632000E-07,
                       7.86010000E-11, -4.60755000E-15, -9.23949000E+02,
                       5.87189000E+00])),
        transport=gas_transport(geom='linear',
                                diam=3.621,
                                well_depth=97.53,
                                polar=1.76,
                                rot_relax=4.0))

species(name='NO(5)',
        atoms='N:1 O:1',
        thermo=(NASA([100.00, 1407.00],
                     [ 3.55718287E+00, -8.90585197E-04,  2.98557151E-06,
                      -2.08691596E-09,  4.65962924E-13,  9.95239678E+03,
                       4.55250983E+00]),
                NASA([1407.00, 5000.00],
                     [ 2.93795514E+00,  1.75427954E-03, -7.77024161E-07,
                       1.42656040E-10, -9.57872631E-15,  1.00391035E+04,
                       7.44026449E+00])),
        transport=gas_transport(geom='linear',
                                diam=3.621,
                                well_depth=97.53,
                                polar=1.76,
                                rot_relax=4.0))

species(name='NH3(6)',
        atoms='H:3 N:1',
        thermo=(NASA([100.00, 993.31],
                     [ 4.09068871E+00, -2.07164892E-03,  1.14752579E-05,
                      -9.47505886E-09,  2.61224588E-12, -6.69036407E+03,
                       2.22495594E-02]),
                NASA([993.31, 5000.00],
                     [ 2.12301674E+00,  6.45659621E-03, -2.31618853E-06,
                       3.93870953E-10, -2.58109080E-14, -6.32928697E+03,
                       9.35179499E+00])),
        transport=gas_transport(geom='nonlinear',
                                diam=2.92,
                                well_depth=481.001,
                                dipole=1.47,
                                rot_relax=10.0))

species(name='N2O(7)',
        atoms='N:2 O:1',
        thermo=(NASA([100.00, 1026.61],
                     [ 3.22183369E+00,  4.41469432E-03,  2.54409227E-06,
                      -6.06073232E-09,  2.45092030E-12,  8.76576974E+03,
                       6.72928681E+00]),
                NASA([1026.61, 5000.00],
                     [ 4.61742784E+00,  3.00864963E-03, -1.29224172E-06,
                       2.55914757E-10, -1.88714262E-14,  8.26677203E+03,
                      -1.07502592E+00])),
        transport=gas_transport(geom='linear',
                                diam=3.828,
                                well_depth=232.401,
                                rot_relax=1.0))

species(name='O(19)',
        atoms='O:1',
        thermo=(NASA([100.00, 4383.16],
                     [ 2.50000000E+00, -2.38914167E-13,  3.12709494E-16,
                      -1.33367320E-19,  1.74989654E-23,  2.92302441E+04,
                       5.12616427E+00]),
                NASA([4383.16, 5000.00],
                     [ 2.50003447E+00, -3.04996987E-08,  1.01101187E-11,
                      -1.48796738E-15,  8.20356170E-20,  2.92302130E+04,
                       5.12594599E+00])),
        transport=gas_transport(geom='atom',
                                diam=2.75,
                                well_depth=80.0))

species(name='CO(20)',
        atoms='C:1 O:1',
        thermo=(NASA([100.00, 871.22],
                     [ 4.08161106E+00,  2.55235729E-03, -1.82114358E-05,
                       2.74733224E-08, -1.21563086E-11,  5.26903807E+04,
                       4.45335664E+00]),
                NASA([871.22, 5000.00],
                     [ 8.76457523E-01,  5.58124844E-03, -3.30481936E-06,
                       6.69363425E-10, -4.64873947E-14,  5.36923865E+04,
                       2.20199462E+01])),
        transport=gas_transport(geom='linear',
                                diam=4.433,
                                well_depth=260.69))

species(name='CO2(22)',
        atoms='C:1 O:2',
        thermo=(NASA([100.00, 978.22],
                     [ 3.28083821E+00,  2.50193291E-03,  8.08164577E-06,
                      -1.20506695E-08,  4.66526645E-12, -4.84008301E+04,
                       6.00083693E+00]),
                NASA([978.22, 5000.00],
                     [ 4.67429780E+00,  2.60958835E-03, -9.85659769E-07,
                       1.95706729E-10, -1.49830320E-14, -4.89512267E+04,
                      -2.11090702E+00])),
        transport=gas_transport(geom='linear',
                                diam=3.941,
                                well_depth=195.201))

species(name='H(24)',
        atoms='H:1',
        thermo=(NASA([100.00, 4383.16],
                     [ 2.50000000E+00, -2.38914167E-13,  3.12709494E-16,
                      -1.33367320E-19,  1.74989654E-23,  2.54742178E+04,
                      -4.44972897E-01]),
                NASA([4383.16, 5000.00],
                     [ 2.50003447E+00, -3.04996987E-08,  1.01101187E-11,
                      -1.48796738E-15,  8.20356170E-20,  2.54741866E+04,
                      -4.45191184E-01])),
        transport=gas_transport(geom='atom',
                                diam=2.05,
                                well_depth=145.0))

species(name='H2(26)',
        atoms='H:2',
        thermo=(NASA([100.00, 1959.08],
                     [ 3.43536411E+00,  2.12710383E-04, -2.78625110E-07,
                       3.40267219E-10, -7.76032129E-14, -1.03135984E+03,
                      -3.90841731E+00]),
                NASA([1959.08, 5000.00],
                     [ 2.78816619E+00,  5.87640475E-04,  1.59010635E-07,
                      -5.52739465E-11,  4.34311304E-15, -5.96144481E+02,
                       1.12730527E-01])),
        transport=gas_transport(geom='linear',
                                diam=2.833,
                                well_depth=59.7))

species(name='OH(27)',
        atoms='H:1 O:1',
        thermo=(NASA([100.00, 1145.76],
                     [ 3.51456841E+00,  2.92731942E-05, -5.32149835E-07,
                       1.01947431E-09, -3.85939061E-13,  3.41425418E+03,
                       2.10434749E+00]),
                NASA([1145.76, 5000.00],
                     [ 3.07193709E+00,  6.04020086E-04, -1.39807303E-08,
                      -2.13440498E-11,  2.48061111E-15,  3.57938799E+03,
                       4.57801556E+00])),
        transport=gas_transport(geom='linear',
                                diam=2.75,
                                well_depth=80.0))

species(name='COOH(28)',
        atoms='C:1 H:1 O:2',
        thermo=(NASA([100.00, 964.15],
                     [ 3.57767945E+00,  4.99244892E-03,  1.17076300E-05,
                      -1.99872899E-08,  8.20517454E-12, -2.33965401E+04,
                       8.08911142E+00]),
                NASA([964.15, 5000.00],
                     [ 6.82921370E+00,  2.24144897E-03, -7.19428869E-07,
                       1.57558307E-10, -1.36948158E-14, -2.45226644E+04,
                      -1.00673990E+01])),
        transport=gas_transport(geom='nonlinear',
                                diam=3.59,
                                well_depth=498.0,
                                rot_relax=2.0))

species(name='N(30)',
        atoms='N:1',
        thermo=(NASA([200.00, 1000.00],
                     [ 2.49977000E+00,  5.02150000E-07,  1.93091000E-09,
                      -4.94633000E-12,  2.74090000E-15,  5.60761000E+04,
                       4.19499000E+00]),
                NASA([1000.00, 6000.00],
                     [ 2.41604000E+00,  1.74664000E-04, -1.18865000E-07,
                       3.01850000E-11, -2.03260000E-15,  5.61052000E+04,
                       4.64906000E+00])),
        transport=gas_transport(geom='atom',
                                diam=3.298,
                                well_depth=71.4))

species(name='NH2(31)',
        atoms='H:2 N:1',
        thermo=(NASA([100.00, 1522.06],
                     [ 4.08973448E+00, -1.15510138E-03,  4.13792931E-06,
                      -2.48320358E-09,  4.84266256E-13,  2.11773523E+04,
                       2.89571669E-01]),
                NASA([1522.06, 5000.00],
                     [ 2.68017679E+00,  3.36838246E-03, -1.12726257E-06,
                       1.76551709E-10, -1.06782934E-14,  2.15115546E+04,
                       7.37028230E+00])),
        transport=gas_transport(geom='nonlinear',
                                diam=2.65,
                                well_depth=80.0,
                                polar=2.26,
                                rot_relax=4.0))

species(name='NH(32)',
        atoms='H:1 N:1',
        thermo=(NASA([100.00, 1032.83],
                     [ 3.52478369E+00, -1.21353172E-05, -6.40602950E-07,
                       1.50179527E-09, -6.55591031E-13,  4.21056874E+04,
                       1.71085163E+00]),
                NASA([1032.83, 5000.00],
                     [ 2.91397597E+00,  1.04069982E-03, -2.63131828E-07,
                       2.75218727E-11, -8.58946365E-16,  4.23018762E+04,
                       5.01633298E+00])),
        transport=gas_transport(geom='linear',
                                diam=2.65,
                                well_depth=80.0,
                                rot_relax=4.0))

species(name='NO2(33)',
        atoms='N:1 O:2',
        thermo=(NASA([100.00, 1003.63],
                     [ 3.95017408E+00, -1.10886044E-03,  1.34099668E-05,
                      -1.53105837E-08,  5.31009534E-12,  2.97329533E+03,
                       6.19456759E+00]),
                NASA([1003.63, 5000.00],
                     [ 4.42985754E+00,  2.84579572E-03, -1.26848228E-06,
                       2.63842092E-10, -2.02206262E-14,  2.58155693E+03,
                       2.40670381E+00])),
        transport=gas_transport(geom='nonlinear',
                                diam=3.5,
                                well_depth=200.001,
                                rot_relax=1.0))

species(name='HCN(35)',
        atoms='C:1 H:1 N:1',
        thermo=(NASA([100.00, 953.96],
                     [ 3.35594185E+00,  1.81462189E-03,  6.01041749E-06,
                      -8.44324178E-09,  3.22802794E-12,  1.43403530E+04,
                       4.34116906E+00]),
                NASA([953.96, 5000.00],
                     [ 3.93179239E+00,  2.81622707E-03, -9.36041264E-07,
                       1.65067598E-10, -1.16592385E-14,  1.40750418E+04,
                       7.75439558E-01])),
        transport=gas_transport(geom='linear',
                                diam=3.63,
                                well_depth=569.002,
                                rot_relax=1.0))

species(name='CN(37)',
        atoms='C:1 N:1',
        thermo=(NASA([100.00, 1501.99],
                     [ 3.56379341E+00, -8.71951402E-04,  2.65898886E-06,
                      -1.73598422E-09,  3.62705909E-13,  5.25392580E+04,
                       4.19381261E+00]),
                NASA([1501.99, 5000.00],
                     [ 2.91438944E+00,  1.68258914E-03, -7.16163484E-07,
                       1.27830742E-10, -8.39326342E-15,  5.26412683E+04,
                       7.28116307E+00])),
        transport=gas_transport(geom='linear',
                                diam=3.856,
                                well_depth=75.0,
                                rot_relax=1.0))

species(name='CH2O(40)',
        atoms='C:1 H:2 O:1',
        thermo=(NASA([100.00, 1070.44],
                     [ 4.12927829E+00, -4.08401633E-03,  2.03229448E-05,
                      -1.83524377E-08,  5.37976060E-12, -1.44294640E+04,
                       3.22418365E+00]),
                NASA([1070.44, 5000.00],
                     [ 2.21172293E+00,  7.94265924E-03, -3.34193191E-06,
                       6.28471724E-10, -4.40431711E-14, -1.42974450E+04,
                       1.13049069E+01])),
        transport=gas_transport(geom='nonlinear',
                                diam=3.59,
                                well_depth=498.002,
                                rot_relax=2.0))

species(name='HCO(42)',
        atoms='C:1 H:1 O:1',
        thermo=(NASA([100.00, 1112.10],
                     [ 4.05936498E+00, -1.73847479E-03,  9.14984441E-06,
                      -8.01135632E-09,  2.25738876E-12,  3.84377613E+03,
                       3.32449376E+00]),
                NASA([1112.10, 5000.00],
                     [ 3.05135606E+00,  4.11707384E-03, -1.75586963E-06,
                       3.29304046E-10, -2.29175030E-14,  3.93008180E+03,
                       7.67467582E+00])),
        transport=gas_transport(geom='nonlinear',
                                diam=3.59,
                                well_depth=498.002))

species(name='C(44)',
        atoms='C:1',
        thermo=(NASA([100.00, 4383.16],
                     [ 2.50000000E+00, -2.38914167E-13,  3.12709494E-16,
                      -1.33367320E-19,  1.74989654E-23,  8.54745247E+04,
                       3.65978421E+00]),
                NASA([4383.16, 5000.00],
                     [ 2.50003447E+00, -3.04996987E-08,  1.01101187E-11,
                      -1.48796738E-15,  8.20356170E-20,  8.54744936E+04,
                       3.65956592E+00])),
        transport=gas_transport(geom='atom',
                                diam=3.298,
                                well_depth=71.4))

species(name='C2N2(46)',
        atoms='C:2 N:2',
        thermo=(NASA([100.00, 845.30],
                     [ 2.60490926E+00,  2.14414709E-02, -3.45431737E-05,
                       2.93048861E-08, -9.70587435E-12,  3.56305577E+04,
                       8.85863661E+00]),
                NASA([845.30, 5000.00],
                     [ 5.13824621E+00,  6.61296725E-03, -3.18898440E-06,
                       6.01132569E-10, -4.08896110E-14,  3.53037581E+04,
                      -2.33719068E+00])),
        transport=gas_transport(geom='linear',
                                diam=4.361,
                                well_depth=349.001,
                                rot_relax=1.0))

species(name='N2O2(105)',
        atoms='N:2 O:2',
        thermo=(NASA([100.00, 977.05],
                     [ 3.16766081E+00,  1.27183292E-02,  7.76234228E-07,
                      -1.45175242E-08,  7.32143331E-12,  1.98964572E+04,
                       1.03782024E+01]),
                NASA([977.05, 5000.00],
                     [ 9.61827957E+00, -2.51480669E-04,  5.63651411E-08,
                       5.10756449E-11, -8.27855545E-15,  1.79944912E+04,
                      -2.38751220E+01])),
        transport=gas_transport(geom='nonlinear',
                                diam=4.687,
                                well_depth=531.4))

species(name='NH2NO(110)',
        atoms='H:2 N:2 O:1',
        thermo=(NASA([100.00, 990.04],
                     [ 3.57580579E+00,  5.12312122E-03,  1.56588600E-05,
                      -2.25491014E-08,  8.49938127E-12,  8.07984565E+03,
                       7.65077951E+00]),
                NASA([990.04, 5000.00],
                     [ 5.80628362E+00,  6.64868110E-03, -2.61750756E-06,
                       5.08236118E-10, -3.76371558E-14,  7.12177967E+03,
                      -5.69571619E+00])),
        transport=gas_transport(geom='nonlinear',
                                diam=5.118,
                                well_depth=237.1))

species(name='HONO(123)',
        atoms='H:1 N:1 O:2',
        thermo=(NASA([100.00, 1030.68],
                     [ 3.58323786E+00,  6.77961102E-03,  2.80751611E-06,
                      -7.92825694E-09,  3.25993137E-12, -1.05229888E+04,
                       7.64226901E+00]),
                NASA([1030.68, 5000.00],
                     [ 5.61863377E+00,  4.45474115E-03, -1.92170321E-06,
                       3.78236080E-10, -2.77198154E-14, -1.12386375E+04,
                      -3.67518764E+00])),
        transport=gas_transport(geom='nonlinear',
                                diam=3.95,
                                well_depth=350.0,
                                dipole=1.639,
                                rot_relax=1.0))

species(name='ONOOH(137)',
        atoms='H:1 N:1 O:3',
        thermo=(NASA([100.00, 768.10],
                     [ 2.96303038E+00,  2.47518035E-02, -3.57817596E-05,
                       2.80289128E-08, -8.89438891E-12, -3.02582354E+03,
                       1.22924725E+01]),
                NASA([768.10, 5000.00],
                     [ 6.03639854E+00,  8.74634641E-03, -4.52436042E-06,
                       8.98582643E-10, -6.38219601E-14, -3.49794211E+03,
                      -1.72380943E+00])),
        transport=gas_transport(geom='nonlinear',
                                diam=4.687,
                                well_depth=531.4))

species(name='ONONO(180)',
        atoms='N:2 O:3',
        thermo=(NASA([100.00, 1001.15],
                     [ 2.24880426E+00,  3.26008757E-02, -3.22932678E-05,
                       9.64941572E-09,  5.98058867E-13,  9.10294914E+03,
                       1.36637593E+01]),
                NASA([1001.15, 5000.00],
                     [ 1.37258008E+01, -1.18335218E-03,  2.39171135E-07,
                       2.92831805E-11, -7.01619245E-15,  6.19996835E+03,
                      -4.47405363E+01])),
        transport=gas_transport(geom='nonlinear',
                                diam=5.784,
                                well_depth=341.1))

species(name='ONOOJ(228)',
        atoms='N:1 O:3',
        thermo=(NASA([100.00, 867.17],
                     [ 3.00798374E+00,  2.56960385E-02, -5.03710523E-05,
                       4.78978658E-08, -1.69753461E-11,  1.51683155E+04,
                       1.25755692E+01]),
                NASA([867.17, 5000.00],
                     [ 5.00463206E+00,  7.75544117E-03, -4.23597842E-06,
                       8.19640356E-10, -5.57662373E-14,  1.51502919E+04,
                       5.12019040E+00])),
        transport=gas_transport(geom='nonlinear',
                                diam=4.687,
                                well_depth=531.4))

species(name='NO2OH(329)',
        atoms='H:1 N:1 O:3',
        thermo=(NASA([100.00, 964.74],
                     [ 3.37979722E+00,  7.07791351E-03,  1.89739812E-05,
                      -3.13218649E-08,  1.27351678E-11, -1.74102620E+04,
                       1.01297081E+01]),
                NASA([964.74, 5000.00],
                     [ 8.17854972E+00,  3.61026767E-03, -1.17844592E-06,
                       2.55813290E-10, -2.19834015E-14, -1.91007121E+04,
                      -1.68116524E+01])),
        transport=gas_transport(geom='nonlinear',
                                diam=4.2,
                                well_depth=400.0,
                                dipole=0.2,
                                rot_relax=1.0))

species(name='NO2NO(421)',
        atoms='N:2 O:3',
        thermo=(NASA([100.00, 797.76],
                     [ 2.68869658E+00,  3.19240051E-02, -5.47784489E-05,
                       4.87667795E-08, -1.70315587E-11,  8.19040721E+03,
                       1.34212293E+01]),
                NASA([797.76, 5000.00],
                     [ 6.29747536E+00,  9.74454994E-03, -5.39459931E-06,
                       1.07961647E-09, -7.61163965E-14,  7.74460647E+03,
                      -2.35895149E+00])),
        transport=gas_transport(geom='nonlinear',
                                diam=5.784,
                                well_depth=341.1))

species(name='HN2O(724)',
        atoms='H:1 N:2 O:1',
        thermo=(NASA([10.00, 674.33],
                     [ 4.05243000E+00, -3.95525000E-03,  3.69538000E-05,
                      -5.25347000E-08,  2.42796000E-11,  2.34165000E+04,
                       6.73238000E+00]),
                NASA([674.33, 3000.00],
                     [ 2.57706000E+00,  1.01152000E-02, -6.17659000E-06,
                       1.80273000E-09, -2.02069000E-13,  2.34946000E+04,
                       1.23722000E+01])),
        transport=gas_transport(geom='nonlinear',
                                diam=3.828,
                                well_depth=232.401,
                                rot_relax=1.0))

species(name='HNNOH(733)',
        atoms='H:2 N:2 O:1',
        thermo=(NASA([100.00, 1000.84],
                     [ 3.51100878E+00,  6.73918833E-03,  1.17223039E-05,
                      -1.89181366E-08,  7.28524264E-12,  8.32224182E+03,
                       8.43832982E+00]),
                NASA([1000.84, 5000.00],
                     [ 6.07657473E+00,  6.39069724E-03, -2.60052750E-06,
                       5.10756851E-10, -3.78942486E-14,  7.31260257E+03,
                      -6.41957869E+00])),
        transport=gas_transport(geom='nonlinear',
                                diam=5.118,
                                well_depth=237.1))

species(name='HO2(935)',
        atoms='H:1 O:2',
        thermo=(NASA([100.00, 1000.24],
                     [ 4.02425861E+00, -1.64549504E-03,  1.05110773E-05,
                      -1.06993350E-08,  3.49387579E-12,  2.34739940E+02,
                       4.70057285E+00]),
                NASA([1000.24, 5000.00],
                     [ 3.62866972E+00,  3.05389584E-03, -1.21131943E-06,
                       2.29641965E-10, -1.65063959E-14,  1.57931174E+02,
                       5.82961483E+00])),
        transport=gas_transport(geom='nonlinear',
                                diam=3.458,
                                well_depth=107.4,
                                rot_relax=1.0))

species(name='X(1)',
        atoms='X:1',
        thermo=(NASA([298.00, 1000.00],
                     [ 0.00000000E+00,  0.00000000E+00,  0.00000000E+00,
                       0.00000000E+00,  0.00000000E+00,  0.00000000E+00,
                       0.00000000E+00]),
                NASA([1000.00, 3000.00],
                     [ 0.00000000E+00,  0.00000000E+00,  0.00000000E+00,
                       0.00000000E+00,  0.00000000E+00,  0.00000000E+00,
                       0.00000000E+00])))

species(name='NH3_X(8)',
        atoms='H:3 N:1 X:1',
        thermo=(NASA([298.00, 1000.00],
                     [ 1.31496774E+00,  1.46998289E-02, -1.30679071E-05,
                       6.99360870E-09, -1.52920905E-12, -1.45305774E+04,
                      -4.29992592E+00]),
                NASA([1000.00, 2000.00],
                     [ 8.39460262E+00, -7.22640455E-03,  1.26169819E-05,
                      -6.50952664E-09,  1.13563586E-12, -1.63659104E+04,
                      -4.02856883E+01])))

species(name='O_X(9)',
        atoms='O:1 X:1',
        thermo=(NASA([298.00, 1000.00],
                     [ 1.79722382E-01,  1.25453156E-02, -2.29924588E-05,
                       1.94187177E-08, -6.22414099E-12, -1.73402246E+04,
                      -2.22409728E+00]),
                NASA([1000.00, 2000.00],
                     [ 2.92050897E+00, -2.70455589E-04,  5.15610634E-07,
                      -2.93911213E-10,  5.54030466E-14, -1.78369003E+04,
                      -1.50940536E+01])))

species(name='NH2_X(10)',
        atoms='H:2 N:1 X:1',
        thermo=(NASA([298.00, 1000.00],
                     [-1.89010759E+00,  2.86217997E-02, -4.34545237E-05,
                       3.34143285E-08, -9.99500135E-12, -4.87893528E+03,
                       6.34997611E+00]),
                NASA([1000.00, 2000.00],
                     [ 6.67968147E+00, -4.64266766E-03,  8.12871035E-06,
                      -4.20436074E-09,  7.35132153E-13, -6.75225639E+03,
                      -3.55181494E+01])))

species(name='OH_X(11)',
        atoms='H:1 O:1 X:1',
        thermo=(NASA([298.00, 1000.00],
                     [ 1.07348583E+00,  1.72652206E-02, -3.17712232E-05,
                       2.71536568E-08, -8.69449304E-12, -1.96002909E+04,
                      -5.65622336E+00]),
                NASA([1000.00, 2000.00],
                     [ 5.01870328E+00, -1.35424298E-03,  2.27686310E-06,
                      -1.09407298E-09,  1.79396487E-13, -2.02979842E+04,
                      -2.41159621E+01])))

species(name='NH_X(12)',
        atoms='H:1 N:1 X:1',