units(length='cm', time='s', quantity='mol', act_energy='kcal/mol')

ideal_gas(name='gas',
          elements="H D T C Ci O Oi N Ne Ar He Si S F Cl Br I X",
          species="""He          Ar          Ne          O2(2)
                     H2O(3)      N2(4)       NO(5)       NH3(6)
                     N2O(7)      NO2(26)     H(29)       OH(30)
                     NH2(34)     HO2(57)     ONOOJ(59)   NNHJ(63)
                     HNO(65)     N2O2(70)    NH2NO(121)  HONO(124)
                     S(147)      ONOOH(148)  ONONO(153)  HNO2(191)
                     NO2NO(222)  NO2OH(227)  H2NO2(270)  NH2OJ(283)
                     HNNOH(290)""",
          reactions='gas-*',
          transport='Mix',
          initial_state=state(temperature=300.0, pressure=OneAtm))

ideal_interface(name='surface1',
                elements="H D T C Ci O Oi N Ne Ar He Si S F Cl Br I X",
                species="""X(1)        HX(9)       OX(10)      HOX(13)
                          H2OX(14)    NH3_X(22)   N_X(23)     NO_X(24)
                          NO2_X(25)   NH2_X(35)   NH_X(37)    N2_X(50)
                          NHO_X(51)   N2X2(54)    O2_ads(71)  HO2X(95)
                          HONO(113)   NOX2(119)   NO2JX(235)  NO2OH(256)
                          NO2X2(416)""",
                site_density=2.483e-09,
                phases="gas",
          reactions='surface1-*',
                initial_state=state(temperature=300.0, pressure=OneAtm))

#-------------------------------------------------------------------------------
# Element data
#-------------------------------------------------------------------------------

element(symbol='Ci', atomic_mass=13.003)
element(symbol='D', atomic_mass=2.014)
element(symbol='Oi', atomic_mass=17.999)
element(symbol='T', atomic_mass=3.016)
element(symbol='X', atomic_mass=195.083)
#-------------------------------------------------------------------------------
# Species data
#-------------------------------------------------------------------------------

species(name='He',
        atoms='He:1',
        thermo=(NASA([200.00, 1000.00],
                     [ 2.50000000E+00,  0.00000000E+00,  0.00000000E+00,
                       0.00000000E+00,  0.00000000E+00, -7.45375000E+02,
                       9.28724000E-01]),
                NASA([1000.00, 6000.00],
                     [ 2.50000000E+00,  0.00000000E+00,  0.00000000E+00,
                       0.00000000E+00,  0.00000000E+00, -7.45375000E+02,
                       9.28724000E-01])),
        transport=gas_transport(geom='atom',
                                diam=2.576,
                                well_depth=10.2))

species(name='Ar',
        atoms='Ar:1',
        thermo=(NASA([200.00, 1000.00],
                     [ 2.50000000E+00,  0.00000000E+00,  0.00000000E+00,
                       0.00000000E+00,  0.00000000E+00, -7.45375000E+02,
                       4.37967000E+00]),
                NASA([1000.00, 6000.00],
                     [ 2.50000000E+00,  0.00000000E+00,  0.00000000E+00,
                       0.00000000E+00,  0.00000000E+00, -7.45375000E+02,
                       4.37967000E+00])),
        transport=gas_transport(geom='atom',
                                diam=3.33,
                                well_depth=136.501))

species(name='Ne',
        atoms='Ne:1',
        thermo=(NASA([200.00, 1000.00],
                     [ 2.50000000E+00,  0.00000000E+00,  0.00000000E+00,
                       0.00000000E+00,  0.00000000E+00, -7.45375000E+02,
                       3.35532000E+00]),
                NASA([1000.00, 6000.00],
                     [ 2.50000000E+00,  0.00000000E+00,  0.00000000E+00,
                       0.00000000E+00,  0.00000000E+00, -7.45375000E+02,
                       3.35532000E+00])),
        transport=gas_transport(geom='atom',
                                diam=3.758,
                                well_depth=148.6))

species(name='O2(2)',
        atoms='O:2',
        thermo=(NASA([100.00, 1074.56],
                     [ 3.53732181E+00, -1.21570928E-03,  5.31617817E-06,
                      -4.89443412E-09,  1.45845038E-12, -1.03858846E+03,
                       4.68368407E+00]),
                NASA([1074.56, 5000.00],
                     [ 3.15382426E+00,  1.67803800E-03, -7.69971009E-07,
                       1.51274711E-10, -1.08781798E-14, -1.04081879E+03,
                       6.16753877E+00])),
        transport=gas_transport(geom='linear',
                                diam=3.458,
                                well_depth=107.4,
                                polar=1.6,
                                rot_relax=3.8))

species(name='H2O(3)',
        atoms='H:2 O:1',
        thermo=(NASA([100.00, 1130.25],
                     [ 4.05763654E+00, -7.87943800E-04,  2.90880094E-06,
                      -1.47521964E-09,  2.12854962E-13, -3.02815867E+04,
                      -3.11366607E-01]),
                NASA([1130.25, 5000.00],
                     [ 2.84324565E+00,  2.75109326E-03, -7.81035842E-07,
                       1.07244643E-10, -5.79400410E-15, -2.99586106E+04,
                       5.91044721E+00])),
        transport=gas_transport(geom='nonlinear',
                                diam=2.605,
                                well_depth=572.402,
                                dipole=1.844,
                                rot_relax=4.0))

species(name='N2(4)',
        atoms='N:2',
        thermo=(NASA([200.00, 1000.00],
                     [ 3.53101000E+00, -1.23661000E-04, -5.02999000E-07,
                       2.43531000E-09, -1.40881000E-12, -1.04698000E+03,
                       2.96747000E+00]),
                NASA([1000.00, 6000.00],
                     [ 2.95258000E+00,  1.39690000E-03, -4.92632000E-07,
                       7.86010000E-11, -4.60755000E-15, -9.23949000E+02,
                       5.87189000E+00])),
        transport=gas_transport(geom='linear',
                                diam=3.621,
                                well_depth=97.53,
                                polar=1.76,
                                rot_relax=4.0))

species(name='NO(5)',
        atoms='N:1 O:1',
        thermo=(NASA([100.00, 1407.02],
                     [ 3.55718148E+00, -8.90571060E-04,  2.98553150E-06,
                      -2.08687561E-09,  4.65949875E-13,  9.95239684E+03,
                       4.55251498E+00]),
                NASA([1407.02, 5000.00],
                     [ 2.93798085E+00,  1.75424119E-03, -7.77004101E-07,
                       1.42651639E-10, -9.57838144E-15,  1.00390907E+04,
                       7.44011605E+00])),
        transport=gas_transport(geom='linear',
                                diam=3.621,
                                well_depth=97.53,
                                polar=1.76,
                                rot_relax=4.0))

species(name='NH3(6)',
        atoms='H:3 N:1',
        thermo=(NASA([100.00, 993.33],
                     [ 4.09068772E+00, -2.07163708E-03,  1.14752156E-05,
                      -9.47500324E-09,  2.61222190E-12, -6.69036403E+03,
                       2.22530808E-02]),
                NASA([993.33, 5000.00],
                     [ 2.12302067E+00,  6.45658953E-03, -2.31618467E-06,
                       3.93870042E-10, -2.58108324E-14, -6.32928862E+03,
                       9.35177287E+00])),
        transport=gas_transport(geom='nonlinear',
                                diam=2.92,
                                well_depth=481.001,
                                dipole=1.47,
                                rot_relax=10.0))

species(name='N2O(7)',
        atoms='N:2 O:1',
        thermo=(NASA([100.00, 1026.61],
                     [ 3.22183134E+00,  4.41472209E-03,  2.54399535E-06,
                      -6.06060786E-09,  2.45086810E-12,  8.76576984E+03,
                       6.72929523E+00]),
                NASA([1026.61, 5000.00],
                     [ 4.61743859E+00,  3.00863157E-03, -1.29223139E-06,
                       2.55912332E-10, -1.88712260E-14,  8.26676745E+03,
                      -1.07508656E+00])),
        transport=gas_transport(geom='linear',
                                diam=3.828,
                                well_depth=232.401,
                                rot_relax=1.0))

species(name='NO2(26)',
        atoms='N:1 O:2',
        thermo=(NASA([100.00, 1003.62],
                     [ 3.95017800E+00, -1.10890723E-03,  1.34101326E-05,
                      -1.53108002E-08,  5.31018790E-12,  2.97329517E+03,
                       6.19455359E+00]),
                NASA([1003.62, 5000.00],
                     [ 4.42984125E+00,  2.84582332E-03, -1.26849815E-06,
                       2.63845835E-10, -2.02209363E-14,  2.58156381E+03,
                       2.40679556E+00])),
        transport=gas_transport(geom='nonlinear',
                                diam=3.5,
                                well_depth=200.001,
                                rot_relax=1.0))

species(name='H(29)',
        atoms='H:1',
        thermo=(NASA([100.00, 3459.60],
                     [ 2.50000000E+00,  9.24384602E-15, -1.36779837E-17,
                       6.66184769E-21, -1.00106912E-24,  2.54742178E+04,
                      -4.44972896E-01]),
                NASA([3459.60, 5000.00],
                     [ 2.49999999E+00,  9.20455546E-12, -3.58608293E-15,
                       6.15198922E-19, -3.92041801E-23,  2.54742178E+04,
                      -4.44972842E-01])),
        transport=gas_transport(geom='atom',
                                diam=2.05,
                                well_depth=145.0))

species(name='OH(30)',
        atoms='H:1 O:1',
        thermo=(NASA([100.00, 1145.76],
                     [ 3.51456839E+00,  2.92734177E-05, -5.32150560E-07,
                       1.01947516E-09, -3.85939388E-13,  3.41425418E+03,
                       2.10434756E+00]),
                NASA([1145.76, 5000.00],
                     [ 3.07193723E+00,  6.04019852E-04, -1.39805999E-08,
                      -2.13440797E-11,  2.48061354E-15,  3.57938792E+03,
                       4.57801473E+00])),
        transport=gas_transport(geom='linear',
                                diam=2.75,
                                well_depth=80.0))

species(name='NH2(34)',
        atoms='H:2 N:1',
        thermo=(NASA([100.00, 1522.03],
                     [ 4.08973577E+00, -1.15511403E-03,  4.13796328E-06,
                      -2.48323585E-09,  4.84276042E-13,  2.11773522E+04,
                       2.89566843E-01]),
                NASA([1522.03, 5000.00],
                     [ 2.68014191E+00,  3.36843288E-03, -1.12728830E-06,
                       1.76557247E-10, -1.06787207E-14,  2.15115727E+04,
                       7.37048498E+00])),
        transport=gas_transport(geom='nonlinear',
                                diam=2.65,
                                well_depth=80.0,
                                polar=2.26,
                                rot_relax=4.0))

species(name='HO2(57)',
        atoms='H:1 O:2',
        thermo=(NASA([100.00, 1000.23],
                     [ 4.02426387E+00, -1.64555802E-03,  1.05113009E-05,
                      -1.06996279E-08,  3.49400133E-12,  2.34739714E+02,
                       4.70055404E+00]),
                NASA([1000.23, 5000.00],
                     [ 3.62864814E+00,  3.05393245E-03, -1.21134051E-06,
                       2.29646940E-10, -1.65068081E-14,  1.57940273E+02,
                       5.82973638E+00])),
        transport=gas_transport(geom='nonlinear',
                                diam=3.458,
                                well_depth=107.4,
                                rot_relax=1.0))

species(name='ONOOJ(59)',
        atoms='N:1 O:3',
        thermo=(NASA([100.00, 867.17],
                     [ 3.00798903E+00,  2.56959706E-02, -5.03707878E-05,
                       4.78974792E-08, -1.69751594E-11,  1.51683153E+04,
                       1.25755506E+01]),
                NASA([867.17, 5000.00],
                     [ 5.00461999E+00,  7.75546269E-03, -4.23599126E-06,
                       8.19643464E-10, -5.57664998E-14,  1.51502966E+04,
                       5.12025770E+00])),
        transport=gas_transport(geom='nonlinear',
                                diam=4.687,
                                well_depth=531.4))

species(name='NNHJ(63)',
        atoms='H:1 N:2',
        thermo=(NASA([100.00, 1085.69],
                     [ 4.05639457E+00, -1.73134497E-03,  9.19514103E-06,
                      -8.17674566E-09,  2.35157297E-12,  2.87988555E+04,
                       4.03299590E+00]),
                NASA([1085.69, 5000.00],
                     [ 3.08739385E+00,  3.98312407E-03, -1.66275704E-06,
                       3.09811390E-10, -2.15377742E-14,  2.88828816E+04,
                       8.20549912E+00])),
        transport=gas_transport(geom='nonlinear',
                                diam=3.798,
                                well_depth=71.4,
                                rot_relax=1.0))

species(name='HNO(65)',
        atoms='H:1 N:1 O:1',
        thermo=(NASA([100.00, 1248.03],
                     [ 4.11012862E+00, -2.22093029E-03,  8.85050766E-06,
                      -6.83133665E-09,  1.69819601E-12,  1.15599620E+04,
                       3.43465419E+00]),
                NASA([1248.03, 5000.00],
                     [ 2.64834323E+00,  4.64380426E-03, -2.01985125E-06,
                       3.74694134E-10, -2.55957115E-14,  1.17550833E+04,
                       1.01307403E+01])),
        transport=gas_transport(geom='nonlinear',
                                diam=3.492,
                                well_depth=116.7,
                                rot_relax=1.0))

species(name='N2O2(70)',
        atoms='N:2 O:2',
        thermo=(NASA([100.00, 977.06],
                     [ 3.16765179E+00,  1.27184383E-02,  7.75840726E-07,
                      -1.45169994E-08,  7.32120391E-12,  1.98964576E+04,
                       1.03782346E+01]),
                NASA([977.06, 5000.00],
                     [ 9.61831310E+00, -2.51538052E-04,  5.63983797E-08,
                       5.10677682E-11, -8.27790058E-15,  1.79944772E+04,
                      -2.38753106E+01])),
        transport=gas_transport(geom='nonlinear',
                                diam=4.687,
                                well_depth=531.4))

species(name='NH2NO(121)',
        atoms='H:2 N:2 O:1',
        thermo=(NASA([100.00, 990.03],
                     [ 3.57581225E+00,  5.12304363E-03,  1.56591373E-05,
                      -2.25494676E-08,  8.49953957E-12,  8.07984538E+03,
                       7.65075648E+00]),
                NASA([990.03, 5000.00],
                     [ 5.80625827E+00,  6.64872427E-03, -2.61753249E-06,
                       5.08242009E-10, -3.76376448E-14,  7.12179031E+03,
                      -5.69557351E+00])),
        transport=gas_transport(geom='nonlinear',
                                diam=5.118,
                                well_depth=237.1))

species(name='HONO(124)',
        atoms='H:1 N:1 O:2',
        thermo=(NASA([100.00, 1030.67],
                     [ 3.58324194E+00,  6.77956286E-03,  2.80768372E-06,
                      -7.92847153E-09,  3.26002109E-12, -1.05229890E+04,
                       7.64225438E+00]),
                NASA([1030.67, 5000.00],
                     [ 5.61861478E+00,  4.45477302E-03, -1.92172142E-06,
                       3.78240351E-10, -2.77201678E-14, -1.12386294E+04,
                      -3.67508048E+00])),
        transport=gas_transport(geom='nonlinear',
                                diam=3.95,
                                well_depth=350.0,
                                dipole=1.639,
                                rot_relax=1.0))

species(name='S(147)',
        atoms='H:2 N:2 O:2',
        thermo=(NASA([100.00, 1156.58],
                     [ 2.70906843E+00,  2.75402926E-02, -2.95298401E-05,
                       1.57516364E-08, -3.31204043E-12,  9.88699221E+03,
                       1.17249177E+01]),
                NASA([1156.58, 5000.00],
                     [ 8.55445180E+00,  7.32419510E-03, -3.31103390E-06,
                       6.38799823E-10, -4.53323594E-14,  8.53486154E+03,
                      -1.73259906E+01])),
        transport=gas_transport(geom='nonlinear',
                                diam=4.687,
                                well_depth=531.4))

species(name='ONOOH(148)',
        atoms='H:1 N:1 O:3',
        thermo=(NASA([100.00, 768.14],
                     [ 2.96303231E+00,  2.47517810E-02, -3.57816826E-05,
                       2.80288133E-08, -8.89434537E-12, -3.02582362E+03,
                       1.22924656E+01]),
                NASA([768.14, 5000.00],
                     [ 6.03640108E+00,  8.74634120E-03, -4.52435700E-06,
                       8.98581758E-10, -6.38218817E-14, -3.49794289E+03,
                      -1.72382302E+00])),
        transport=gas_transport(geom='nonlinear',
                                diam=4.687,
                                well_depth=531.4))

species(name='ONONO(153)',
        atoms='N:2 O:3',
        thermo=(NASA([100.00, 1001.15],
                     [ 2.24879839E+00,  3.26009460E-02, -3.22935172E-05,
                       9.64974224E-09,  5.97919020E-13,  9.10294939E+03,
                       1.36637803E+01]),
                NASA([1001.15, 5000.00],
                     [ 1.37258250E+01, -1.18339321E-03,  2.39194755E-07,
                       2.92776088E-11, -7.01573079E-15,  6.19995814E+03,
                      -4.47406725E+01])),
        transport=gas_transport(geom='nonlinear',
                                diam=5.784,
                                well_depth=341.1))

species(name='HNO2(191)',
        atoms='H:1 N:1 O:2',
        thermo=(NASA([100.00, 1007.86],
                     [ 3.98439375E+00, -2.90734587E-03,  2.42183346E-05,
                      -2.60196146E-08,  8.72153466E-12, -6.45816992E+03,
                       6.63654571E+00]),
                NASA([1007.86, 5000.00],
                     [ 3.92431014E+00,  6.24041893E-03, -2.65593641E-06,
                       5.27594604E-10, -3.90804545E-14, -6.89855764E+03,
                       4.68204338E+00])),
        transport=gas_transport(geom='nonlinear',
                                diam=3.95,
                                well_depth=350.0,
                                dipole=1.639,
                                rot_relax=1.0))

species(name='NO2NO(222)',
        atoms='N:2 O:3',
        thermo=(NASA([100.00, 797.72],
                     [ 2.68864968E+00,  3.19246309E-02, -5.47810267E-05,
                       4.87707956E-08, -1.70336371E-11,  8.19040920E+03,
                       1.34213932E+01]),
                NASA([797.72, 5000.00],
                     [ 6.29755155E+00,  9.74441015E-03, -5.39451429E-06,
                       1.07959561E-09, -7.61146161E-14,  7.74457756E+03,
                      -2.35937415E+00])),
        transport=gas_transport(geom='nonlinear',
                                diam=5.784,
                                well_depth=341.1))

species(name='NO2OH(227)',
        atoms='H:1 N:1 O:3',
        thermo=(NASA([100.00, 964.74],
                     [ 3.37979394E+00,  7.07795347E-03,  1.89738359E-05,
                      -3.13216693E-08,  1.27350814E-11, -1.74102618E+04,
                       1.01297198E+01]),
                NASA([964.74, 5000.00],
                     [ 8.17856129E+00,  3.61024777E-03, -1.17843436E-06,
                       2.55810544E-10, -2.19831728E-14, -1.91007169E+04,
                      -1.68117174E+01])),
        transport=gas_transport(geom='nonlinear',
                                diam=4.2,
                                well_depth=400.0,
                                dipole=0.2,
                                rot_relax=1.0))

species(name='H2NO2(270)',
        atoms='H:2 N:1 O:2',
        thermo=(NASA([100.00, 1492.35],
                     [ 3.52871209E+00,  1.13043887E-02, -6.90043106E-06,
                       2.18536825E-09, -3.02428725E-13,  1.76154663E+04,
                       1.00582460E+01]),
                NASA([1492.35, 5000.00],
                     [ 4.80898520E+00,  7.87281243E-03, -3.45125032E-06,
                       6.44534676E-10, -4.43056791E-14,  1.72333447E+04,
                       3.36911346E+00])),
        transport=gas_transport(geom='nonlinear',
                                diam=5.118,
                                well_depth=237.1))

species(name='NH2OJ(283)',
        atoms='H:2 N:1 O:1',
        thermo=(NASA([100.00, 1947.25],
                     [ 3.94550143E+00,  3.66316757E-03,  9.70080117E-07,
                      -1.35904825E-09,  2.83751281E-13,  6.92849718E+03,
                       7.87015520E+00]),
                NASA([1947.25, 5000.00],
                     [ 4.51740464E+00,  5.03664910E-03, -2.05092197E-06,
                       3.47288113E-10, -2.16018382E-14,  6.22264643E+03,
                       3.48939730E+00])),
        transport=gas_transport(geom='nonlinear',
                                diam=3.492,
                                well_depth=116.7,
                                rot_relax=1.0))

species(name='HNNOH(290)',
        atoms='H:2 N:2 O:1',
        thermo=(NASA([100.00, 1000.84],
                     [ 3.51101428E+00,  6.73912251E-03,  1.17225375E-05,
                      -1.89184424E-08,  7.28537368E-12,  8.32224158E+03,
                       8.43831016E+00]),
                NASA([1000.84, 5000.00],
                     [ 6.07655211E+00,  6.39073562E-03, -2.60054960E-06,
                       5.10762064E-10, -3.78946805E-14,  7.31261211E+03,
                      -6.41945127E+00])),
        transport=gas_transport(geom='nonlinear',
                                diam=5.118,
                                well_depth=237.1))

species(name='X(1)',
        atoms='X:1',
        thermo=(NASA([298.00, 1000.00],
                     [ 0.00000000E+00,  0.00000000E+00,  0.00000000E+00,
                       0.00000000E+00,  0.00000000E+00,  0.00000000E+00,
                       0.00000000E+00]),
                NASA([1000.00, 3000.00],
                     [ 0.00000000E+00,  0.00000000E+00,  0.00000000E+00,
                       0.00000000E+00,  0.00000000E+00,  0.00000000E+00,
                       0.00000000E+00])))

species(name='HX(9)',
        atoms='H:1 X:1',
        thermo=(NASA([298.00, 1000.00],
                     [-1.96702988E+00,  1.67920714E-02, -2.50314139E-05,
                       1.80485455E-08, -5.11491197E-12, -3.21277026E+03,
                       7.68211257E+00]),
                NASA([1000.00, 2000.00],
                     [ 2.71968546E+00, -1.07696656E-03,  2.00193294E-06,
                      -1.12865983E-09,  2.11269165E-13, -4.24701712E+03,
                      -1.52793490E+01])))

species(name='OX(10)',
        atoms='O:1 X:1',
        thermo=(NASA([298.00, 1000.00],
                     [ 1.79722382E-01,  1.25453156E-02, -2.29924588E-05,
                       1.94187177E-08, -6.22414099E-12, -1.73402246E+04,
                      -2.22409728E+00]),
                NASA([1000.00, 2000.00],
                     [ 2.92050897E+00, -2.70455589E-04,  5.15610634E-07,
                      -2.93911213E-10,  5.54030466E-14, -1.78369003E+04,
                      -1.50940536E+01])))

species(name='HOX(13)',
        atoms='H:1 O:1 X:1',
        thermo=(NASA([298.00, 1000.00],
                     [ 1.07348583E+00,  1.72652206E-02, -3.17712232E-05,
                       2.71536568E-08, -8.69449304E-12, -1.96002909E+04,
                      -5.65622336E+00]),
                NASA([1000.00, 2000.00],
                     [ 5.01870328E+00, -1.35424298E-03,  2.27686310E-06,
                      -1.09407298E-09,  1.79396487E-13, -2.02979842E+04,
                      -2.41159621E+01])))

species(name='H2OX(14)',
        atoms='H:2 O:1 X:1',
        thermo=(NASA([298.00, 1000.00],
                     [ 2.53777266E+00,  9.45372010E-03, -1.41325664E-05,
                       1.16730945E-08, -3.67657640E-12, -3.27590463E+04,
                      -5.36548561E+00]),
                NASA([1000.00, 2000.00],
                     [ 5.84789466E+00, -3.31526816E-03,  5.62018785E-06,
                      -2.75864893E-09,  4.61279066E-13, -3.34885608E+04,
                      -2.15622699E+01])))

species(name='NH3_X(22)',
        atoms='H:3 N:1 X:1',
        thermo=(NASA([298.00, 1000.00],
                     [ 1.31496774E+00,  1.46998289E-02, -1.30679071E-05,
                       6.99360870E-09, -1.52920905E-12, -1.45305774E+04,
                      -4.29992592E+00]),
                NASA([1000.00, 2000.00],
                     [ 8.39460262E+00, -7.22640455E-03,  1.26169819E-05,
                      -6.50952664E-09,  1.13563586E-12, -1.63659104E+04,
                      -4.02856883E+01])))

species(name='N_X(23)',
        atoms='N:1 X:1',
        thermo=(NASA([298.00, 1000.00],
                     [-8.62158075E-01,  1.65321723E-02, -2.95187453E-05,
                       2.44741387E-08, -7.73894837E-12,  4.56391760E+03,
                       2.27263793E+00]),
                NASA([1000.00, 2000.00],
                     [ 2.87812725E+00, -4.32547150E-04,  8.18868468E-07,
                      -4.65641564E-10,  8.76522110E-14,  3.86307901E+03,
                      -1.54118153E+01])))

species(name='NO_X(24)',
        atoms='N:1 O:1 X:1',
        thermo=(NASA([298.00, 1000.00],
                     [ 1.91253452E+00,  1.19742948E-02, -1.74150740E-05,
                       1.31050130E-08, -3.98440482E-12, -1.39133497E+04,
                      -9.50920619E+00]),
                NASA([1000.00, 2000.00],
                     [ 5.58200160E+00, -1.44698193E-03,  2.66840782E-06,
                      -1.48667738E-09,  2.75613483E-13, -1.47707534E+04,
                      -2.76785587E+01])))

species(name='NO2_X(25)',
        atoms='N:1 O:2 X:1',
        thermo=(NASA([100.00, 944.78],
                     [ 3.77761273E+00, -2.42435523E-04,  2.27925148E-05,
                      -3.07622678E-08,  1.20227209E-11, -1.46114223E+04,
                      -1.04281554E+01]),
                NASA([944.78, 5000.00],
                     [ 6.56032390E+00,  1.06476421E-03, -6.32224278E-08,
                       2.86672424E-11, -4.96825971E-15, -1.57213855E+04,
                      -2.67865327E+01])))

species(name='NH2_X(35)',
        atoms='H:2 N:1 X:1',
        thermo=(NASA([298.00, 1000.00],
                     [-1.89010759E+00,  2.86217997E-02, -4.34545237E-05,
                       3.34143285E-08, -9.99500135E-12, -4.87893528E+03,
                       6.34997611E+00]),
                NASA([1000.00, 2000.00],
                     [ 6.67968147E+00, -4.64266766E-03,  8.12871035E-06,
                      -4.20436074E-09,  7.35132153E-13, -6.75225639E+03,
                      -3.55181494E+01])))

species(name='NH_X(37)',
        atoms='H:1 N:1 X:1',
        thermo=(NASA([298.00, 1000.00],
                     [-2.68663098E+00,  2.89197486E-02, -4.76398566E-05,
                       3.77368064E-08, -1.14895177E-11, -1.39698939E+03,
                       9.81076735E+00]),
                NASA([1000.00, 2000.00],
                     [ 4.82700699E+00, -2.46380210E-03,  4.35378855E-06,
                      -2.27895186E-09,  4.02508146E-13, -2.92453268E+03,
                      -2.63392973E+01])))

species(name='N2_X(50)',
        atoms='N:2 X:1',
        thermo=(NASA([298.00, 1000.00],
                     [ 4.13993917E+00, -9.92755910E-04,  1.76704033E-06,
                      -1.57884342E-10, -3.64206712E-13, -4.38199802E+03,
                      -7.98299353E+00]),
                NASA([1000.00, 2000.00],
                     [ 4.38660517E+00, -1.50692391E-03,  2.67640594E-06,
                      -1.41531803E-09,  2.51363379E-13, -4.48345747E+03,
                      -9.36216462E+00])))

species(name='NHO_X(51)',
        atoms='H:1 N:1 O:1 X:1',
        thermo=(NASA([298.00, 1000.00],
                     [ 1.08095806E+00,  1.29219267E-02, -1.33374540E-05,
                       7.75158679E-09, -1.92612419E-12, -8.13728821E+03,
                       6.08546053E-01]),
                NASA([1000.00, 2000.00],
                     [ 6.47671505E+00, -3.95793547E-03,  7.09299979E-06,
                      -3.80627447E-09,  6.85388388E-13, -9.53610261E+03,
                      -2.67996453E+01])))

species(name='N2X2(54)',
        atoms='N:2 X:2',
        thermo=(NASA([100.00, 899.07],
                     [ 3.17988900E+00,  2.16745972E-03,  1.49948526E-05,
                      -2.58978952E-08,  1.15481723E-11, -1.28962753E+04,
                      -1.75805654E+01]),
                NASA([899.07, 5000.00],
                     [ 7.25771166E+00, -3.06811296E-03,  2.19621155E-06,
                      -4.40293987E-10,  2.93499924E-14, -1.41511722E+04,
                      -3.97208822E+01])),
        size=2.0)

species(name='O2_ads(71)',
        atoms='O:2 X:2',
        thermo=(NASA([298.00, 1000.00],
                     [ 7.44370346E-01,  2.11027468E-02, -3.61266754E-05,
                       2.91032111E-08, -9.01689834E-12, -1.45323684E+04,
                      -4.83356832E+00]),
                NASA([1000.00, 2000.00],
                     [ 5.79639127E+00, -7.49042336E-04,  1.40680168E-06,
                      -7.97092567E-10,  1.49696529E-13, -1.55278968E+04,
                      -2.89715227E+01])),
        size=2.0)

species(name='HO2X(95)',
        atoms='H:1 O:2 X:1',
        thermo=(NASA([298.00, 1000.00],
                     [ 3.30951701E+00,  1.58303400E-02, -2.48037342E-05,
                       1.93368066E-08, -5.83664367E-12, -1.65355567E+04,
                      -1.33537537E+01]),
                NASA([1000.00, 2000.00],