units(length='cm', time='s', quantity='mol', act_energy='kcal/mol')

ideal_gas(name='gas',
          elements="H D T C Ci O Oi N Ne Ar He Si S F Cl Br I X",
          species="""He         Ne         O2(2)      H2O(3)     N2(4)
                     NO(5)      NH3(6)     N2O(7)     NO2(29)    OH(33)
                     NH2(37)    HO2(53)    HNO(103)   H2NO(104)  HONO(107)
                     HNO2(110)  NO3(111)""",
          reactions='gas-*',
          transport='Mix',
          initial_state=state(temperature=300.0, pressure=OneAtm))

ideal_interface(name='surface1',
                elements="H D T C Ci O Oi N Ne Ar He Si S F Cl Br I X",
                species="""X(1)       NH3_X(8)   O_X(9)     NH2_X(10)
                          OH_X(11)   NH_X(12)   N_X(13)    NO_X(14)
                          NHO_X(15)  H2O_X(16)  HX(18)     NO2_X(28)
                          N2O_X(48)  N2O_X(51)  HNOX(189)  HONO(190)
                          N2X(199)""",
                site_density=2.483e-09,
                phases="gas",
          reactions='surface1-*',
                initial_state=state(temperature=300.0, pressure=OneAtm))

#-------------------------------------------------------------------------------
# Element data
#-------------------------------------------------------------------------------

element(symbol='Ci', atomic_mass=13.003)
element(symbol='D', atomic_mass=2.014)
element(symbol='Oi', atomic_mass=17.999)
element(symbol='T', atomic_mass=3.016)
element(symbol='X', atomic_mass=195.083)
#-------------------------------------------------------------------------------
# Species data
#-------------------------------------------------------------------------------

species(name='He',
        atoms='He:1',
        thermo=(NASA([200.00, 1000.00],
                     [ 2.50000000E+00,  0.00000000E+00,  0.00000000E+00,
                       0.00000000E+00,  0.00000000E+00, -7.45375000E+02,
                       9.28724000E-01]),
                NASA([1000.00, 6000.00],
                     [ 2.50000000E+00,  0.00000000E+00,  0.00000000E+00,
                       0.00000000E+00,  0.00000000E+00, -7.45375000E+02,
                       9.28724000E-01])),
        transport=gas_transport(geom='atom',
                                diam=2.576,
                                well_depth=10.2))

species(name='Ne',
        atoms='Ne:1',
        thermo=(NASA([200.00, 1000.00],
                     [ 2.50000000E+00,  0.00000000E+00,  0.00000000E+00,
                       0.00000000E+00,  0.00000000E+00, -7.45375000E+02,
                       3.35532000E+00]),
                NASA([1000.00, 6000.00],
                     [ 2.50000000E+00,  0.00000000E+00,  0.00000000E+00,
                       0.00000000E+00,  0.00000000E+00, -7.45375000E+02,
                       3.35532000E+00])),
        transport=gas_transport(geom='atom',
                                diam=3.758,
                                well_depth=148.6))

species(name='O2(2)',
        atoms='O:2',
        thermo=(NASA([100.00, 1074.56],
                     [ 3.53732181E+00, -1.21570928E-03,  5.31617817E-06,
                      -4.89443412E-09,  1.45845038E-12, -1.03858846E+03,
                       4.68368407E+00]),
                NASA([1074.56, 5000.00],
                     [ 3.15382426E+00,  1.67803800E-03, -7.69971009E-07,
                       1.51274711E-10, -1.08781798E-14, -1.04081879E+03,
                       6.16753877E+00])),
        transport=gas_transport(geom='linear',
                                diam=3.458,
                                well_depth=107.4,
                                polar=1.6,
                                rot_relax=3.8))

species(name='H2O(3)',
        atoms='H:2 O:1',
        thermo=(NASA([100.00, 1130.25],
                     [ 4.05763654E+00, -7.87943800E-04,  2.90880094E-06,
                      -1.47521964E-09,  2.12854962E-13, -3.02815867E+04,
                      -3.11366607E-01]),
                NASA([1130.25, 5000.00],
                     [ 2.84324565E+00,  2.75109326E-03, -7.81035842E-07,
                       1.07244643E-10, -5.79400410E-15, -2.99586106E+04,
                       5.91044721E+00])),
        transport=gas_transport(geom='nonlinear',
                                diam=2.605,
                                well_depth=572.402,
                                dipole=1.844,
                                rot_relax=4.0))

species(name='N2(4)',
        atoms='N:2',
        thermo=(NASA([200.00, 1000.00],
                     [ 3.53101000E+00, -1.23661000E-04, -5.02999000E-07,
                       2.43531000E-09, -1.40881000E-12, -1.04698000E+03,
                       2.96747000E+00]),
                NASA([1000.00, 6000.00],
                     [ 2.95258000E+00,  1.39690000E-03, -4.92632000E-07,
                       7.86010000E-11, -4.60755000E-15, -9.23949000E+02,
                       5.87189000E+00])),
        transport=gas_transport(geom='linear',
                                diam=3.621,
                                well_depth=97.53,
                                polar=1.76,
                                rot_relax=4.0))

species(name='NO(5)',
        atoms='N:1 O:1',
        thermo=(NASA([100.00, 1407.02],
                     [ 3.55718148E+00, -8.90571060E-04,  2.98553150E-06,
                      -2.08687561E-09,  4.65949875E-13,  9.95239684E+03,
                       4.55251498E+00]),
                NASA([1407.02, 5000.00],
                     [ 2.93798085E+00,  1.75424119E-03, -7.77004101E-07,
                       1.42651639E-10, -9.57838144E-15,  1.00390907E+04,
                       7.44011605E+00])),
        transport=gas_transport(geom='linear',
                                diam=3.621,
                                well_depth=97.53,
                                polar=1.76,
                                rot_relax=4.0))

species(name='NH3(6)',
        atoms='H:3 N:1',
        thermo=(NASA([100.00, 993.33],
                     [ 4.09068772E+00, -2.07163708E-03,  1.14752156E-05,
                      -9.47500324E-09,  2.61222190E-12, -6.69036403E+03,
                       2.22530808E-02]),
                NASA([993.33, 5000.00],
                     [ 2.12302067E+00,  6.45658953E-03, -2.31618467E-06,
                       3.93870042E-10, -2.58108324E-14, -6.32928862E+03,
                       9.35177287E+00])),
        transport=gas_transport(geom='nonlinear',
                                diam=2.92,
                                well_depth=481.001,
                                dipole=1.47,
                                rot_relax=10.0))

species(name='N2O(7)',
        atoms='N:2 O:1',
        thermo=(NASA([100.00, 1026.61],
                     [ 3.22183134E+00,  4.41472209E-03,  2.54399535E-06,
                      -6.06060786E-09,  2.45086810E-12,  8.76576984E+03,
                       6.72929523E+00]),
                NASA([1026.61, 5000.00],
                     [ 4.61743859E+00,  3.00863157E-03, -1.29223139E-06,
                       2.55912332E-10, -1.88712260E-14,  8.26676745E+03,
                      -1.07508656E+00])),
        transport=gas_transport(geom='linear',
                                diam=3.828,
                                well_depth=232.401,
                                rot_relax=1.0))

species(name='NO2(29)',
        atoms='N:1 O:2',
        thermo=(NASA([100.00, 1003.62],
                     [ 3.95017800E+00, -1.10890723E-03,  1.34101326E-05,
                      -1.53108002E-08,  5.31018790E-12,  2.97329517E+03,
                       6.19455359E+00]),
                NASA([1003.62, 5000.00],
                     [ 4.42984125E+00,  2.84582332E-03, -1.26849815E-06,
                       2.63845835E-10, -2.02209363E-14,  2.58156381E+03,
                       2.40679556E+00])),
        transport=gas_transport(geom='nonlinear',
                                diam=3.5,
                                well_depth=200.001,
                                rot_relax=1.0))

species(name='OH(33)',
        atoms='H:1 O:1',
        thermo=(NASA([100.00, 1145.76],
                     [ 3.51456839E+00,  2.92734177E-05, -5.32150560E-07,
                       1.01947516E-09, -3.85939388E-13,  3.41425418E+03,
                       2.10434756E+00]),
                NASA([1145.76, 5000.00],
                     [ 3.07193723E+00,  6.04019852E-04, -1.39805999E-08,
                      -2.13440797E-11,  2.48061354E-15,  3.57938792E+03,
                       4.57801473E+00])),
        transport=gas_transport(geom='linear',
                                diam=2.75,
                                well_depth=80.0))

species(name='NH2(37)',
        atoms='H:2 N:1',
        thermo=(NASA([100.00, 1522.03],
                     [ 4.08973577E+00, -1.15511403E-03,  4.13796328E-06,
                      -2.48323585E-09,  4.84276042E-13,  2.11773522E+04,
                       2.89566843E-01]),
                NASA([1522.03, 5000.00],
                     [ 2.68014191E+00,  3.36843288E-03, -1.12728830E-06,
                       1.76557247E-10, -1.06787207E-14,  2.15115727E+04,
                       7.37048498E+00])),
        transport=gas_transport(geom='nonlinear',
                                diam=2.65,
                                well_depth=80.0,
                                polar=2.26,
                                rot_relax=4.0))

species(name='HO2(53)',
        atoms='H:1 O:2',
        thermo=(NASA([100.00, 1000.23],
                     [ 4.02426387E+00, -1.64555802E-03,  1.05113009E-05,
                      -1.06996279E-08,  3.49400133E-12,  2.34739714E+02,
                       4.70055404E+00]),
                NASA([1000.23, 5000.00],
                     [ 3.62864814E+00,  3.05393245E-03, -1.21134051E-06,
                       2.29646940E-10, -1.65068081E-14,  1.57940273E+02,
                       5.82973638E+00])),
        transport=gas_transport(geom='nonlinear',
                                diam=3.458,
                                well_depth=107.4,
                                rot_relax=1.0))

species(name='HNO(103)',
        atoms='H:1 N:1 O:1',
        thermo=(NASA([100.00, 1248.03],
                     [ 4.11012862E+00, -2.22093029E-03,  8.85050766E-06,
                      -6.83133665E-09,  1.69819601E-12,  1.15599620E+04,
                       3.43465419E+00]),
                NASA([1248.03, 5000.00],
                     [ 2.64834323E+00,  4.64380426E-03, -2.01985125E-06,
                       3.74694134E-10, -2.55957115E-14,  1.17550833E+04,
                       1.01307403E+01])),
        transport=gas_transport(geom='nonlinear',
                                diam=3.492,
                                well_depth=116.7,
                                rot_relax=1.0))

species(name='H2NO(104)',
        atoms='H:2 N:1 O:1',
        thermo=(NASA([100.00, 1947.25],
                     [ 3.94550143E+00,  3.66316757E-03,  9.70080117E-07,
                      -1.35904825E-09,  2.83751281E-13,  6.92849718E+03,
                       7.87015520E+00]),
                NASA([1947.25, 5000.00],
                     [ 4.51740464E+00,  5.03664910E-03, -2.05092197E-06,
                       3.47288113E-10, -2.16018382E-14,  6.22264643E+03,
                       3.48939730E+00])),
        transport=gas_transport(geom='nonlinear',
                                diam=3.492,
                                well_depth=116.7,
                                rot_relax=1.0))

species(name='HONO(107)',
        atoms='H:1 N:1 O:2',
        thermo=(NASA([100.00, 1030.67],
                     [ 3.58324194E+00,  6.77956286E-03,  2.80768372E-06,
                      -7.92847153E-09,  3.26002109E-12, -1.05229890E+04,
                       7.64225438E+00]),
                NASA([1030.67, 5000.00],
                     [ 5.61861478E+00,  4.45477302E-03, -1.92172142E-06,
                       3.78240351E-10, -2.77201678E-14, -1.12386294E+04,
                      -3.67508048E+00])),
        transport=gas_transport(geom='nonlinear',
                                diam=3.95,
                                well_depth=350.0,
                                dipole=1.639,
                                rot_relax=1.0))

species(name='HNO2(110)',
        atoms='H:1 N:1 O:2',
        thermo=(NASA([100.00, 1007.86],
                     [ 3.98439375E+00, -2.90734587E-03,  2.42183346E-05,
                      -2.60196146E-08,  8.72153466E-12, -6.45816992E+03,
                       6.63654571E+00]),
                NASA([1007.86, 5000.00],
                     [ 3.92431014E+00,  6.24041893E-03, -2.65593641E-06,
                       5.27594604E-10, -3.90804545E-14, -6.89855764E+03,
                       4.68204338E+00])),
        transport=gas_transport(geom='nonlinear',
                                diam=3.95,
                                well_depth=350.0,
                                dipole=1.639,
                                rot_relax=1.0))

species(name='NO3(111)',
        atoms='N:1 O:3',
        thermo=(NASA([100.00, 1140.52],
                     [ 3.24880637E+00,  1.41575379E-02, -1.14280373E-05,
                       3.51331355E-09, -1.64999704E-13,  8.23447959E+03,
                       9.23547219E+00]),
                NASA([1140.52, 5000.00],
                     [ 7.25356122E+00,  3.41503838E-03, -1.64350456E-06,
                       3.33100044E-10, -2.44741439E-14,  7.10616279E+03,
                      -1.15534637E+01])),
        transport=gas_transport(geom='nonlinear',
                                diam=4.2,
                                well_depth=400.0,
                                dipole=0.2,
                                rot_relax=1.0))

species(name='X(1)',
        atoms='X:1',
        thermo=(NASA([298.00, 1000.00],
                     [ 0.00000000E+00,  0.00000000E+00,  0.00000000E+00,
                       0.00000000E+00,  0.00000000E+00,  0.00000000E+00,
                       0.00000000E+00]),
                NASA([1000.00, 3000.00],
                     [ 0.00000000E+00,  0.00000000E+00,  0.00000000E+00,
                       0.00000000E+00,  0.00000000E+00,  0.00000000E+00,
                       0.00000000E+00])))

species(name='NH3_X(8)',
        atoms='H:3 N:1 X:1',
        thermo=(NASA([298.00, 1000.00],
                     [ 1.31496774E+00,  1.46998289E-02, -1.30679071E-05,
                       6.99360870E-09, -1.52920905E-12, -1.45305774E+04,
                      -4.29992592E+00]),
                NASA([1000.00, 2000.00],
                     [ 8.39460262E+00, -7.22640455E-03,  1.26169819E-05,
                      -6.50952664E-09,  1.13563586E-12, -1.63659104E+04,
                      -4.02856883E+01])))

species(name='O_X(9)',
        atoms='O:1 X:1',
        thermo=(NASA([298.00, 1000.00],
                     [ 1.79722382E-01,  1.25453156E-02, -2.29924588E-05,
                       1.94187177E-08, -6.22414099E-12, -1.73402246E+04,
                      -2.22409728E+00]),
                NASA([1000.00, 2000.00],
                     [ 2.92050897E+00, -2.70455589E-04,  5.15610634E-07,
                      -2.93911213E-10,  5.54030466E-14, -1.78369003E+04,
                      -1.50940536E+01])))

species(name='NH2_X(10)',
        atoms='H:2 N:1 X:1',
        thermo=(NASA([298.00, 1000.00],
                     [-1.89010759E+00,  2.86217997E-02, -4.34545237E-05,
                       3.34143285E-08, -9.99500135E-12, -4.87893528E+03,
                       6.34997611E+00]),
                NASA([1000.00, 2000.00],
                     [ 6.67968147E+00, -4.64266766E-03,  8.12871035E-06,
                      -4.20436074E-09,  7.35132153E-13, -6.75225639E+03,
                      -3.55181494E+01])))

species(name='OH_X(11)',
        atoms='H:1 O:1 X:1',
        thermo=(NASA([298.00, 1000.00],
                     [ 1.07348583E+00,  1.72652206E-02, -3.17712232E-05,
                       2.71536568E-08, -8.69449304E-12, -1.96002909E+04,
                      -5.65622336E+00]),
                NASA([1000.00, 2000.00],
                     [ 5.01870328E+00, -1.35424298E-03,  2.27686310E-06,
                      -1.09407298E-09,  1.79396487E-13, -2.02979842E+04,
                      -2.41159621E+01])))

species(name='NH_X(12)',
        atoms='H:1 N:1 X:1',
        thermo=(NASA([298.00, 1000.00],
                     [-2.68663098E+00,  2.89197486E-02, -4.76398566E-05,
                       3.77368064E-08, -1.14895177E-11, -1.39698939E+03,
                       9.81076735E+00]),
                NASA([1000.00, 2000.00],
                     [ 4.82700699E+00, -2.46380210E-03,  4.35378855E-06,
                      -2.27895186E-09,  4.02508146E-13, -2.92453268E+03,
                      -2.63392973E+01])))

species(name='N_X(13)',
        atoms='N:1 X:1',
        thermo=(NASA([298.00, 1000.00],
                     [-8.62158075E-01,  1.65321723E-02, -2.95187453E-05,
                       2.44741387E-08, -7.73894837E-12,  4.56391760E+03,
                       2.27263793E+00]),
                NASA([1000.00, 2000.00],
                     [ 2.87812725E+00, -4.32547150E-04,  8.18868468E-07,
                      -4.65641564E-10,  8.76522110E-14,  3.86307901E+03,
                      -1.54118153E+01])))

species(name='NO_X(14)',
        atoms='N:1 O:1 X:1',
        thermo=(NASA([298.00, 1000.00],
                     [ 1.91253452E+00,  1.19742948E-02, -1.74150740E-05,
                       1.31050130E-08, -3.98440482E-12, -1.39133497E+04,
                      -9.50920619E+00]),
                NASA([1000.00, 2000.00],
                     [ 5.58200160E+00, -1.44698193E-03,  2.66840782E-06,
                      -1.48667738E-09,  2.75613483E-13, -1.47707534E+04,
                      -2.76785587E+01])))

species(name='NHO_X(15)',
        atoms='H:1 N:1 O:1 X:1',
        thermo=(NASA([298.00, 1000.00],
                     [ 2.01921333E+00,  1.32114264E-02, -1.38865889E-05,
                       8.22652454E-09, -2.08098816E-12, -8.20311734E+03,
                      -7.36585771E+00]),
                NASA([1000.00, 2000.00],
                     [ 7.47524494E+00, -3.96252296E-03,  7.10187157E-06,
                      -3.81135483E-09,  6.86348467E-13, -9.61232525E+03,
                      -3.50542775E+01])))

species(name='H2O_X(16)',
        atoms='H:2 O:1 X:1',
        thermo=(NASA([298.00, 1000.00],
                     [ 2.53777266E+00,  9.45372010E-03, -1.41325664E-05,
                       1.16730945E-08, -3.67657640E-12, -3.27590463E+04,
                      -5.36548561E+00]),
                NASA([1000.00, 2000.00],
                     [ 5.84789466E+00, -3.31526816E-03,  5.62018785E-06,
                      -2.75864893E-09,  4.61279066E-13, -3.34885608E+04,
                      -2.15622699E+01])))

species(name='HX(18)',
        atoms='H:1 X:1',
        thermo=(NASA([298.00, 1000.00],
                     [-1.96702988E+00,  1.67920714E-02, -2.50314139E-05,
                       1.80485455E-08, -5.11491197E-12, -3.21277026E+03,
                       7.68211257E+00]),
                NASA([1000.00, 2000.00],
                     [ 2.71968546E+00, -1.07696656E-03,  2.00193294E-06,
                      -1.12865983E-09,  2.11269165E-13, -4.24701712E+03,
                      -1.52793490E+01])))

species(name='NO2_X(28)',
        atoms='N:1 O:2 X:1',
        thermo=(NASA([100.00, 944.78],
                     [ 3.77761273E+00, -2.42435523E-04,  2.27925148E-05,
                      -3.07622678E-08,  1.20227209E-11, -2.03078610E+04,
                      -1.04281554E+01]),
                NASA([944.78, 5000.00],
                     [ 6.56032390E+00,  1.06476421E-03, -6.32224278E-08,
                       2.86672424E-11, -4.96825971E-15, -2.14178242E+04,
                      -2.67865327E+01])))

species(name='N2O_X(48)',
        atoms='N:2 O:1 X:1',
        thermo=(NASA([100.00, 922.11],
                     [ 4.14561464E+00, -1.68703748E-02,  7.96504716E-05,
                      -9.67499402E-08,  3.72750092E-11,  5.73246537E+03,
                      -1.16602964E+01]),
                NASA([922.11, 5000.00],
                     [ 9.61526693E+00, -5.47386513E-03,  3.97655308E-06,
                      -7.31585378E-10,  4.35197965E-14,  3.23050544E+03,
                      -4.57015200E+01])))

species(name='N2O_X(51)',
        atoms='N:2 O:1 X:1',
        thermo=(NASA([100.00, 971.58],
                     [ 3.03441124E+00,  7.20156191E-03,  3.44631073E-06,
                      -1.06676845E-08,  4.79018440E-12,  4.77782804E+03,
                      -3.34339433E+00]),
                NASA([971.58, 5000.00],
                     [ 5.91358258E+00,  2.71896998E-03, -1.01290919E-06,
                       2.00473284E-10, -1.55152302E-14,  3.87045848E+03,
                      -1.89410992E+01])))

species(name='HNOX(189)',
        atoms='H:1 N:1 O:1 X:1',
        thermo=(NASA([298.00, 1000.00],
                     [ 7.02968349E-01,  2.37024940E-02, -3.55330194E-05,
                       2.65623392E-08, -7.77662656E-12, -1.08269894E+04,
                      -4.53311528E+00]),
                NASA([1000.00, 2000.00],
                     [ 7.64521455E+00, -2.91720741E-03,  5.16378086E-06,
                      -2.71526676E-09,  4.81634389E-13, -1.23572356E+04,
                      -3.85225151E+01])))

species(name='HONO(190)',
        atoms='H:1 N:1 O:2 X:1',
        thermo=(NASA([100.00, 943.73],
                     [ 3.30627438E+00,  9.43859144E-03,  1.12357628E-05,
                      -2.45666269E-08,  1.08774081E-11, -2.55190522E+04,
                      -1.08766335E+01]),
                NASA([943.73, 5000.00],
                     [ 8.50096224E+00,  2.07450944E-03, -3.50280696E-07,
                       7.08138696E-11, -7.63487809E-15, -2.71520787E+04,
                      -3.90944247E+01])))

species(name='N2X(199)',
        atoms='N:2 X:1',
        thermo=(NASA([298.00, 1000.00],
                     [ 4.13993917E+00, -9.92755910E-04,  1.76704033E-06,
                      -1.57884342E-10, -3.64206712E-13, -4.38199802E+03,
                      -7.98299353E+00]),
                NASA([1000.00, 2000.00],
                     [ 4.38660517E+00, -1.50692391E-03,  2.67640594E-06,
                      -1.41531803E-09,  2.51363379E-13, -4.48345747E+03,
                      -9.36216462E+00])))

#-------------------------------------------------------------------------------
# Reaction data
#-------------------------------------------------------------------------------
#  Reaction index: Chemkin #2; RMG #743
#  Library reaction: NOx2018
#  Flux pairs: NO2(29), O2(2); NO2(29), NO(5); NO2(29), NO(5);

# Reaction 2
reaction('NO2(29) + NO2(29) <=> O2(2) + NO(5) + NO(5)', [4.500000e+12, 0.0, 27.599],
         id='gas-2')
#  Reaction index: Chemkin #3; RMG #752
#  Library reaction: NOx2018
#  Flux pairs: HONO(107), NO2(29); HONO(107), H2O(3); HONO(107), NO(5);

# Reaction 3
reaction('HONO(107) + HONO(107) <=> NO(5) + NO2(29) + H2O(3)', [3.500000e-01, 3.64, 12.14],
         id='gas-3')
#  Reaction index: Chemkin #4; RMG #774
#  Library reaction: NOx2018
#  Flux pairs: N2O(7), NO2(29); NO(5), N2(4);

# Reaction 4
reaction('NO(5) + N2O(7) <=> NO2(29) + N2(4)', [5.300000e+05, 2.23, 46.28],
         id='gas-4')
#  Reaction index: Chemkin #5; RMG #664
#  Library reaction: NOx2018
#  Flux pairs: NO(5), H2O(3); NH2(37), N2(4);

# Reaction 5
reaction('NO(5) + NH2(37) <=> N2(4) + H2O(3)', [2.600000e+19, -2.369, 0.87],
         id='gas-5')
#  Reaction index: Chemkin #6; RMG #666
#  Library reaction: NOx2018
#  Flux pairs: HONO(107), NO2(29); NH2(37), NH3(6);

# Reaction 6
reaction('HONO(107) + NH2(37) <=> NO2(29) + NH3(6)', [7.100000e+01, 3.02, -4.94],
         id='gas-6')
#  Reaction index: Chemkin #7; RMG #668
#  Library reaction: NOx2018
#  Flux pairs: NO2(29), N2O(7); NH2(37), H2O(3);

# Reaction 7
reaction('NO2(29) + NH2(37) <=> N2O(7) + H2O(3)', [2.200000e+11, 0.11, -1.186],
         id='gas-7')
#  Reaction index: Chemkin #8; RMG #667
#  Library reaction: NOx2018
#  Flux pairs: NO2(29), H2NO(104); NH2(37), NO(5);

# Reaction 8
reaction('NO2(29) + NH2(37) <=> NO(5) + H2NO(104)', [8.600000e+11, 0.11, -1.186],
         id='gas-8')
#  Reaction index: Chemkin #9; RMG #663
#  Library reaction: NOx2018
#  Flux pairs: HNO(103), NO(5); NH2(37), NH3(6);

# Reaction 9
reaction('HNO(103) + NH2(37) <=> NO(5) + NH3(6)', [5.900000e+02, 2.95, -3.469],
         id='gas-9')
#  Reaction index: Chemkin #10; RMG #716
#  Library reaction: NOx2018
#  Flux pairs: H2NO(104), HNO(103); NH2(37), NH3(6);

# Reaction 10
reaction('NH2(37) + H2NO(104) <=> HNO(103) + NH3(6)', [3.000000e+12, 0.0, 1.0],
         id='gas-10')
#  Reaction index: Chemkin #11; RMG #717
#  Library reaction: NOx2018
#  Flux pairs: H2NO(104), HNO(103); NO(5), HNO(103);

# Reaction 11
reaction('NO(5) + H2NO(104) <=> HNO(103) + HNO(103)', [2.000000e+04, 2.0, 13.0],
         id='gas-11')
#  Reaction index: Chemkin #12; RMG #718
#  Library reaction: NOx2018
#  Flux pairs: NO2(29), HONO(107); H2NO(104), HNO(103);

# Reaction 12
reaction('NO2(29) + H2NO(104) <=> HNO(103) + HONO(107)', [4.400000e+04, 2.64, 4.04],
         id='gas-12')
#  Reaction index: Chemkin #13; RMG #735
#  Library reaction: NOx2018
#  Flux pairs: HNO(103), N2O(7); HNO(103), H2O(3);

# Reaction 13
reaction('HNO(103) + HNO(103) <=> N2O(7) + H2O(3)', [9.000000e+08, 0.0, 3.1],
         id='gas-13')
#  Reaction index: Chemkin #14; RMG #736
#  Library reaction: NOx2018
#  Flux pairs: NO2(29), HONO(107); HNO(103), NO(5);

# Reaction 14
reaction('NO2(29) + HNO(103) <=> NO(5) + HONO(107)', [4.400000e+04, 2.64, 4.04],
         id='gas-14')
#  Reaction index: Chemkin #15; RMG #654
#  Library reaction: NOx2018
#  Flux pairs: HO2(53), O2(2); NH2(37), NH3(6);

# Reaction 15
reaction('HO2(53) + NH2(37) <=> O2(2) + NH3(6)', [1.700000e+04, 1.55, 2.027],
         id='gas-15')
#  Reaction index: Chemkin #16; RMG #656
#  Library reaction: NOx2018

# Reaction 16
reaction('HO2(53) + NH2(37) <=> HNO(103) + H2O(3)', [1.600000e+07, 0.55, 0.525],
         id='gas-16',
         options='duplicate')
#  Reaction index: Chemkin #17; RMG #656
#  Library reaction: NOx2018

# Reaction 17
reaction('HO2(53) + NH2(37) <=> HNO(103) + H2O(3)', [5.700000e+15, -1.12, 0.707],
         id='gas-17',
         options='duplicate')
#  Reaction index: Chemkin #18; RMG #715
#  Library reaction: NOx2018
#  Flux pairs: O2(2), HO2(53); H2NO(104), HNO(103);

# Reaction 18
reaction('O2(2) + H2NO(104) <=> HO2(53) + HNO(103)', [2.300000e+02, 2.994, 16.5],
         id='gas-18')
#  Reaction index: Chemkin #19; RMG #734
#  Library reaction: NOx2018
#  Flux pairs: O2(2), HO2(53); HNO(103), NO(5);

# Reaction 19
reaction('O2(2) + HNO(103) <=> NO(5) + HO2(53)', [2.000000e+13, 0.0, 16.0],
         id='gas-19')
#  Reaction index: Chemkin #20; RMG #741
#  Library reaction: NOx2018
#  Flux pairs: NO2(29), HONO(107); HO2(53), O2(2);

# Reaction 20
reaction('NO2(29) + HO2(53) <=> O2(2) + HONO(107)', [1.900000e+00, 3.32, 3.044],
         id='gas-20')
#  Reaction index: Chemkin #21; RMG #742
#  Library reaction: NOx2018
#  Flux pairs: NO2(29), HNO2(110); HO2(53), O2(2);

# Reaction 21
reaction('NO2(29) + HO2(53) <=> O2(2) + HNO2(110)', [1.900000e+01, 3.26, 4.983],
         id='gas-21')
#  Reaction index: Chemkin #22; RMG #92
#  Library reaction: NOx2018

# Reaction 22
reaction('OH(33) + HO2(53) <=> O2(2) + H2O(3)', [1.900000e+20, -2.49, 0.584],
         id='gas-22',
         options='duplicate')
#  Reaction index: Chemkin #23; RMG #92
#  Library reaction: NOx2018

# Reaction 23
reaction('OH(33) + HO2(53) <=> O2(2) + H2O(3)', [1.200000e+09, 1.24, -1.31],
         id='gas-23',
         options='duplicate')
#  Reaction index: Chemkin #24; RMG #648
#  Library reaction: NOx2018
#  Flux pairs: OH(33), H2O(3); NH3(6), NH2(37);

# Reaction 24
reaction('OH(33) + NH3(6) <=> H2O(3) + NH2(37)', [2.000000e+06, 2.04, 0.566],
         id='gas-24')
#  Reaction index: Chemkin #25; RMG #655
#  Library reaction: NOx2018
#  Flux pairs: HO2(53), H2NO(104); NH2(37), OH(33);

# Reaction 25
reaction('HO2(53) + NH2(37) <=> OH(33) + H2NO(104)', [2.500000e+17, -1.28, 1.166],
         id='gas-25')
#  Reaction index: Chemkin #26; RMG #659
#  Library reaction: NOx2018
#  Flux pairs: O2(2), HNO(103); NH2(37), OH(33);

# Reaction 26
reaction('O2(2) + NH2(37) <=> OH(33) + HNO(103)', [2.900000e-02, 3.764, 18.185],
         id='gas-26')
#  Reaction index: Chemkin #27; RMG #713
#  Library reaction: NOx2018
#  Flux pairs: H2NO(104), HNO(103); OH(33), H2O(3);

# Reaction 27
reaction('OH(33) + H2NO(104) <=> HNO(103) + H2O(3)', [1.000000e+14, 0.0, 0.0],
         id='gas-27')
#  Reaction index: Chemkin #28; RMG #732
#  Library reaction: NOx2018
#  Flux pairs: HNO(103), NO(5); OH(33), H2O(3);

# Reaction 28
reaction('OH(33) + HNO(103) <=> NO(5) + H2O(3)', [1.200000e+09, 1.189, 0.334],
         id='gas-28')
#  Reaction index: Chemkin #29; RMG #733
#  Library reaction: NOx2018
#  Flux pairs: HO2(53), HNO2(110); HNO(103), OH(33);

# Reaction 29
reaction('HO2(53) + HNO(103) <=> OH(33) + HNO2(110)', [2.000000e+03, 2.36, 8.98],
         id='gas-29')
#  Reaction index: Chemkin #30; RMG #737
#  Library reaction: NOx2018
#  Flux pairs: HO2(53), NO2(29); NO(5), OH(33);

# Reaction 30
reaction('NO(5) + HO2(53) <=> NO2(29) + OH(33)', [2.100000e+12, 0.0, -0.497],
         id='gas-30')
#  Reaction index: Chemkin #32; RMG #750
#  Library reaction: NOx2018
#  Flux pairs: HONO(107), NO2(29); OH(33), H2O(3);

# Reaction 32
reaction('OH(33) + HONO(107) <=> NO2(29) + H2O(3)', [1.700000e+12, 0.0, -0.52],
         id='gas-32')
#  Reaction index: Chemkin #33; RMG #756
#  Library reaction: NOx2018
#  Flux pairs: HNO2(110), NO2(29); OH(33), H2O(3);

# Reaction 33
reaction('OH(33) + HNO2(110) <=> NO2(29) + H2O(3)', [4.000000e+13, 0.0, 0.0],
         id='gas-33')
#  Reaction index: Chemkin #34; RMG #772
#  Library reaction: NOx2018