units(length='cm', time='s', quantity='mol', act_energy='kcal/mol')

ideal_gas(name='gas',
          elements="H D T C Ci O Oi N Ne Ar He Si S F Cl Br I X",
          species="""He          Ne          O2(2)       H2O(3)
                     N2(4)       NO(5)       NH3(6)      N2O(7)
                     H2(19)      H(30)       O(31)       OH(32)
                     HO2(34)     H2O2(35)    NH2(88)     NH(89)
                     HNO(90)     H2NO(91)    NNH(94)     HONO(95)
                     NO2(96)     NH2OH(97)   HNO2(99)    NO3(100)
                     HONO2(101)  N2H4(105)   HNNN(243)   N2O2(249)
                     N4(261)     ONOOJ(265)  N3O2(276)   H2NO2(281)
                     ONOOH(287)  NONDO(341)  H4N4(446)   ONONO(487)
                     NO2NO(936)  S(952)      H2N2O(977)""",
          reactions='gas-*',
          transport='Mix',
          initial_state=state(temperature=300.0, pressure=OneAtm))

ideal_interface(name='surface1',
                elements="H D T C Ci O Oi N Ne Ar He Si S F Cl Br I X",
                species="""X(1)        NH3_X(8)    O_X(9)      NH2_X(10)
                          OH_X(11)    NH_X(12)    N_X(13)     NO_X(14)
                          NHO_X(15)   N2O_X(16)   N2_X(17)    H2O_X(18)
                          HX(20)      H2NOX(200)  H4N2X(201)  H3NOX(202)
                          H3N2X(203)  H2N2X(204)  H2NOX(206)  NNOHX(210)
                          HN2OX(213)  NNHJX(217)  H2N3X(218)  O2X2(219)
                          O2(S)(220)  HO2X(221)   HNOXX(222)  NOX2(223)
                          NO2JX(224)  N2OXX(225)  H2O2X(228)  HONO(231)
                          H2N2X(240)  HN2X2(241)  HN3X2(244)  HNNN(245)
                          N2X2(246)   N2OX(247)   N2OXX(260)  N4X2(262)
                          N2X(263)    H2X(279)    NNHJX(280)  H4N4X(445)
                          H3N4X(451)  H3N4X(586)  HN3X2(594)  HNOX2(791)
                          NO2X2(933)""",
                site_density=2.483e-09,
                phases="gas",
          reactions='surface1-*',
                initial_state=state(temperature=300.0, pressure=OneAtm))

#-------------------------------------------------------------------------------
# Element data
#-------------------------------------------------------------------------------

element(symbol='Ci', atomic_mass=13.003)
element(symbol='D', atomic_mass=2.014)
element(symbol='Oi', atomic_mass=17.999)
element(symbol='T', atomic_mass=3.016)
element(symbol='X', atomic_mass=195.083)
#-------------------------------------------------------------------------------
# Species data
#-------------------------------------------------------------------------------

species(name='He',
        atoms='He:1',
        thermo=(NASA([200.00, 1000.00],
                     [ 2.50000000E+00,  0.00000000E+00,  0.00000000E+00,
                       0.00000000E+00,  0.00000000E+00, -7.45375000E+02,
                       9.28724000E-01]),
                NASA([1000.00, 6000.00],
                     [ 2.50000000E+00,  0.00000000E+00,  0.00000000E+00,
                       0.00000000E+00,  0.00000000E+00, -7.45375000E+02,
                       9.28724000E-01])),
        transport=gas_transport(geom='atom',
                                diam=2.576,
                                well_depth=10.2))

species(name='Ne',
        atoms='Ne:1',
        thermo=(NASA([200.00, 1000.00],
                     [ 2.50000000E+00,  0.00000000E+00,  0.00000000E+00,
                       0.00000000E+00,  0.00000000E+00, -7.45375000E+02,
                       3.35532000E+00]),
                NASA([1000.00, 6000.00],
                     [ 2.50000000E+00,  0.00000000E+00,  0.00000000E+00,
                       0.00000000E+00,  0.00000000E+00, -7.45375000E+02,
                       3.35532000E+00])),
        transport=gas_transport(geom='atom',
                                diam=3.758,
                                well_depth=148.6))

species(name='O2(2)',
        atoms='O:2',
        thermo=(NASA([100.00, 1074.56],
                     [ 3.53732181E+00, -1.21570930E-03,  5.31617826E-06,
                      -4.89443424E-09,  1.45845042E-12, -1.03858846E+03,
                       4.68368406E+00]),
                NASA([1074.56, 5000.00],
                     [ 3.15382425E+00,  1.67803802E-03, -7.69971022E-07,
                       1.51274714E-10, -1.08781801E-14, -1.04081878E+03,
                       6.16753884E+00])),
        transport=gas_transport(geom='linear',
                                diam=3.467,
                                well_depth=106.7))

species(name='H2O(3)',
        atoms='H:2 O:1',
        thermo=(NASA([100.00, 1130.24],
                     [ 4.05763610E+00, -7.87938871E-04,  2.90878480E-06,
                      -1.47520039E-09,  2.12847506E-13, -3.02815866E+04,
                      -3.11365027E-01]),
                NASA([1130.24, 5000.00],
                     [ 2.84324866E+00,  2.75108838E-03, -7.81033120E-07,
                       1.07244016E-10, -5.79395308E-15, -2.99586120E+04,
                       5.91043011E+00])),
        transport=gas_transport(geom='nonlinear',
                                diam=2.641,
                                well_depth=809.102,
                                polar=1.76,
                                rot_relax=4.0))

species(name='N2(4)',
        atoms='N:2',
        thermo=(NASA([200.00, 1000.00],
                     [ 3.53101000E+00, -1.23661000E-04, -5.02999000E-07,
                       2.43531000E-09, -1.40881000E-12, -1.04698000E+03,
                       2.96747000E+00]),
                NASA([1000.00, 6000.00],
                     [ 2.95258000E+00,  1.39690000E-03, -4.92632000E-07,
                       7.86010000E-11, -4.60755000E-15, -9.23949000E+02,
                       5.87189000E+00])),
        transport=gas_transport(geom='linear',
                                diam=3.621,
                                well_depth=97.53,
                                polar=1.76,
                                rot_relax=4.0))

species(name='NO(5)',
        atoms='N:1 O:1',
        thermo=(NASA([100.00, 1406.98],
                     [ 3.55718369E+00, -8.90593517E-04,  2.98559505E-06,
                      -2.08693970E-09,  4.65970604E-13,  9.95239674E+03,
                       4.55250679E+00]),
                NASA([1406.98, 5000.00],
                     [ 2.93794002E+00,  1.75430211E-03, -7.77035965E-07,
                       1.42658630E-10, -9.57892926E-15,  1.00391110E+04,
                       7.44035185E+00])),
        transport=gas_transport(geom='linear',
                                diam=3.621,
                                well_depth=97.53,
                                polar=1.76,
                                rot_relax=4.0))

species(name='NH3(6)',
        atoms='H:3 N:1',
        thermo=(NASA([100.00, 993.33],
                     [ 4.09068691E+00, -2.07162736E-03,  1.14751809E-05,
                      -9.47495756E-09,  2.61220220E-12, -6.69036399E+03,
                       2.22559730E-02]),
                NASA([993.33, 5000.00],
                     [ 2.12302389E+00,  6.45658404E-03, -2.31618151E-06,
                       3.93869294E-10, -2.58107704E-14, -6.32928998E+03,
                       9.35175470E+00])),
        transport=gas_transport(geom='nonlinear',
                                diam=2.92,
                                well_depth=481.001,
                                dipole=1.47,
                                rot_relax=10.0))

species(name='N2O(7)',
        atoms='N:2 O:1',
        thermo=(NASA([100.00, 1026.61],
                     [ 3.22183369E+00,  4.41469435E-03,  2.54409215E-06,
                      -6.06073216E-09,  2.45092024E-12,  8.76576974E+03,
                       6.72928682E+00]),
                NASA([1026.61, 5000.00],
                     [ 4.61742785E+00,  3.00864961E-03, -1.29224171E-06,
                       2.55914754E-10, -1.88714260E-14,  8.26677203E+03,
                      -1.07502599E+00])),
        transport=gas_transport(geom='linear',
                                diam=3.828,
                                well_depth=232.401,
                                rot_relax=1.0))

species(name='H2(19)',
        atoms='H:2',
        thermo=(NASA([100.00, 1959.08],
                     [ 3.43536412E+00,  2.12710353E-04, -2.78625043E-07,
                       3.40267167E-10, -7.76031998E-14, -1.03135984E+03,
                      -3.90841732E+00]),
                NASA([1959.08, 5000.00],
                     [ 2.78816583E+00,  5.87640942E-04,  1.59010417E-07,
                      -5.52739026E-11,  4.34310984E-15, -5.96144270E+02,
                       1.12732655E-01])),
        transport=gas_transport(geom='linear',
                                diam=2.833,
                                well_depth=59.7))

species(name='H(30)',
        atoms='H:1',
        thermo=(NASA([100.00, 3459.60],
                     [ 2.50000000E+00,  9.24384602E-15, -1.36779837E-17,
                       6.66184769E-21, -1.00106912E-24,  2.54742178E+04,
                      -4.44972896E-01]),
                NASA([3459.60, 5000.00],
                     [ 2.49999999E+00,  9.20455546E-12, -3.58608293E-15,
                       6.15198922E-19, -3.92041801E-23,  2.54742178E+04,
                      -4.44972842E-01])),
        transport=gas_transport(geom='atom',
                                diam=2.05,
                                well_depth=145.0))

species(name='O(31)',
        atoms='O:1',
        thermo=(NASA([100.00, 3459.60],
                     [ 2.50000000E+00,  9.24384602E-15, -1.36779837E-17,
                       6.66184769E-21, -1.00106912E-24,  2.92302441E+04,
                       5.12616427E+00]),
                NASA([3459.60, 5000.00],
                     [ 2.49999999E+00,  9.20455546E-12, -3.58608293E-15,
                       6.15198922E-19, -3.92041801E-23,  2.92302441E+04,
                       5.12616433E+00])),
        transport=gas_transport(geom='atom',
                                diam=2.75,
                                well_depth=80.0))

species(name='OH(32)',
        atoms='H:1 O:1',
        thermo=(NASA([100.00, 1145.75],
                     [ 3.51456768E+00,  2.92814373E-05, -5.32176582E-07,
                       1.01950588E-09, -3.85951152E-13,  3.41425421E+03,
                       2.10435015E+00]),
                NASA([1145.75, 5000.00],
                     [ 3.07194246E+00,  6.04011411E-04, -1.39759127E-08,
                      -2.13451563E-11,  2.48070095E-15,  3.57938557E+03,
                       4.57798500E+00])),
        transport=gas_transport(geom='linear',
                                diam=2.75,
                                well_depth=80.0))

species(name='HO2(34)',
        atoms='H:1 O:2',
        thermo=(NASA([100.00, 1000.25],
                     [ 4.02425547E+00, -1.64545752E-03,  1.05109441E-05,
                      -1.06991604E-08,  3.49380097E-12,  2.34740074E+02,
                       4.70058405E+00]),
                NASA([1000.25, 5000.00],
                     [ 3.62868258E+00,  3.05387401E-03, -1.21130686E-06,
                       2.29639000E-10, -1.65061502E-14,  1.57925751E+02,
                       5.82954238E+00])),
        transport=gas_transport(geom='nonlinear',
                                diam=3.458,
                                well_depth=107.4,
                                rot_relax=1.0))

species(name='H2O2(35)',
        atoms='H:2 O:2',
        thermo=(NASA([100.00, 1005.78],
                     [ 3.81666060E+00,  2.71177103E-03,  6.17757060E-06,
                      -8.24839330E-09,  2.92664300E-12, -1.76922539E+04,
                       5.38575095E+00]),
                NASA([1005.78, 5000.00],
                     [ 4.14711917E+00,  4.72694898E-03, -1.79320499E-06,
                       3.26120398E-10, -2.27309864E-14, -1.79271299E+04,
                       2.95240617E+00])),
        transport=gas_transport(geom='nonlinear',
                                diam=4.196,
                                well_depth=289.3))

species(name='NH2(88)',
        atoms='H:2 N:1',
        thermo=(NASA([100.00, 1522.04],
                     [ 4.08973525E+00, -1.15510884E-03,  4.13794934E-06,
                      -2.48322261E-09,  4.84272026E-13,  2.11773523E+04,
                       2.89568823E-01]),
                NASA([1522.04, 5000.00],
                     [ 2.68015622E+00,  3.36841219E-03, -1.12727774E-06,
                       1.76554975E-10, -1.06785453E-14,  2.15115653E+04,
                       7.37040182E+00])),
        transport=gas_transport(geom='nonlinear',
                                diam=2.65,
                                well_depth=80.0,
                                polar=2.26,
                                rot_relax=4.0))

species(name='NH(89)',
        atoms='H:1 N:1',
        thermo=(NASA([100.00, 1032.82],
                     [ 3.52478292E+00, -1.21263029E-05, -6.40634283E-07,
                       1.50183532E-09, -6.55607746E-13,  4.21056875E+04,
                       1.71085437E+00]),
                NASA([1032.82, 5000.00],
                     [ 2.91397956E+00,  1.04069380E-03, -2.63128391E-07,
                       2.75210667E-11, -8.58879882E-16,  4.23018746E+04,
                       5.01631272E+00])),
        transport=gas_transport(geom='linear',
                                diam=2.65,
                                well_depth=80.0,
                                rot_relax=4.0))

species(name='HNO(90)',
        atoms='H:1 N:1 O:1',
        thermo=(NASA([100.00, 1248.00],
                     [ 4.11013534E+00, -2.22100261E-03,  8.85072936E-06,
                      -6.83158174E-09,  1.69828348E-12,  1.15599617E+04,
                       3.43462962E+00]),
                NASA([1248.00, 5000.00],
                     [ 2.64827165E+00,  4.64391616E-03, -2.01991191E-06,
                       3.74707815E-10, -2.55968067E-14,  1.17551168E+04,
                       1.01311499E+01])),
        transport=gas_transport(geom='nonlinear',
                                diam=3.492,
                                well_depth=116.7,
                                rot_relax=1.0))

species(name='H2NO(91)',
        atoms='H:2 N:1 O:1',
        thermo=(NASA([100.00, 1947.24],
                     [ 3.94550195E+00,  3.66316298E-03,  9.70090558E-07,
                      -1.35905648E-09,  2.83753328E-13,  6.92849715E+03,
                       7.87015318E+00]),
                NASA([1947.24, 5000.00],
                     [ 4.51735153E+00,  5.03671827E-03, -2.05095443E-06,
                       3.47294639E-10, -2.16023146E-14,  6.22267766E+03,
                       3.48971193E+00])),
        transport=gas_transport(geom='nonlinear',
                                diam=3.492,
                                well_depth=116.7,
                                rot_relax=1.0))

species(name='NNH(94)',
        atoms='H:1 N:2',
        thermo=(NASA([100.00, 1085.70],
                     [ 4.05639099E+00, -1.73130379E-03,  9.19500253E-06,
                      -8.17657529E-09,  2.35150474E-12,  2.87988556E+04,
                       4.03300880E+00]),
                NASA([1085.70, 5000.00],
                     [ 3.08741460E+00,  3.98308989E-03, -1.66273778E-06,
                       3.09806918E-10, -2.15374080E-14,  2.88828725E+04,
                       8.20538157E+00])),
        transport=gas_transport(geom='nonlinear',
                                diam=3.798,
                                well_depth=71.4,
                                rot_relax=1.0))

species(name='HONO(95)',
        atoms='H:1 N:1 O:2',
        thermo=(NASA([100.00, 1030.67],
                     [ 3.58324186E+00,  6.77956384E-03,  2.80768032E-06,
                      -7.92846718E-09,  3.26001927E-12, -1.05229890E+04,
                       7.64225468E+00]),
                NASA([1030.67, 5000.00],
                     [ 5.61861517E+00,  4.45477237E-03, -1.92172105E-06,
                       3.78240265E-10, -2.77201606E-14, -1.12386295E+04,
                      -3.67508266E+00])),
        transport=gas_transport(geom='nonlinear',
                                diam=3.95,
                                well_depth=350.0,
                                dipole=1.639,
                                rot_relax=1.0))

species(name='NO2(96)',
        atoms='N:1 O:2',
        thermo=(NASA([100.00, 1003.64],
                     [ 3.95016408E+00, -1.10874097E-03,  1.34095436E-05,
                      -1.53100307E-08,  5.30985898E-12,  2.97329576E+03,
                       6.19460333E+00]),
                NASA([1003.64, 5000.00],
                     [ 4.42989913E+00,  2.84572522E-03, -1.26844172E-06,
                       2.63832529E-10, -2.02198342E-14,  2.58153936E+03,
                       2.40646946E+00])),
        transport=gas_transport(geom='nonlinear',
                                diam=3.5,
                                well_depth=200.001,
                                rot_relax=1.0))

species(name='NH2OH(97)',
        atoms='H:3 N:1 O:1',
        thermo=(NASA([100.00, 1003.06],
                     [ 3.82099339E+00, -4.71622825E-04,  2.62904129E-05,
                      -3.05247151E-08,  1.06030694E-11, -6.16559052E+03,
                       5.65842332E+00]),
                NASA([1003.06, 5000.00],
                     [ 4.72262416E+00,  7.57957297E-03, -3.16645567E-06,
                       6.29236065E-10, -4.68394343E-14, -6.93236902E+03,
                      -1.61475606E+00])),
        transport=gas_transport(geom='nonlinear',
                                diam=3.492,
                                well_depth=116.7,
                                rot_relax=1.0))

species(name='HNO2(99)',
        atoms='H:1 N:1 O:2',
        thermo=(NASA([100.00, 1007.87],
                     [ 3.98438946E+00, -2.90729474E-03,  2.42181540E-05,
                      -2.60193794E-08,  8.72143447E-12, -6.45816973E+03,
                       6.63656104E+00]),
                NASA([1007.87, 5000.00],
                     [ 3.92432829E+00,  6.24038821E-03, -2.65591875E-06,
                       5.27590445E-10, -3.90801102E-14, -6.89856532E+03,
                       4.68194108E+00])),
        transport=gas_transport(geom='nonlinear',
                                diam=3.95,
                                well_depth=350.0,
                                dipole=1.639,
                                rot_relax=1.0))

species(name='NO3(100)',
        atoms='N:1 O:3',
        thermo=(NASA([100.00, 1140.53],
                     [ 3.24880406E+00,  1.41575638E-02, -1.14281216E-05,
                       3.51341345E-09, -1.65038110E-13,  8.23447969E+03,
                       9.23548054E+00]),
                NASA([1140.53, 5000.00],
                     [ 7.25357774E+00,  3.41501166E-03, -1.64348971E-06,
                       3.33096628E-10, -2.44738663E-14,  7.10615538E+03,
                      -1.15535577E+01])),
        transport=gas_transport(geom='nonlinear',
                                diam=4.2,
                                well_depth=400.0,
                                dipole=0.2,
                                rot_relax=1.0))

species(name='HONO2(101)',
        atoms='H:1 N:1 O:3',
        thermo=(NASA([100.00, 964.74],
                     [ 3.37980264E+00,  7.07784754E-03,  1.89742211E-05,
                      -3.13221880E-08,  1.27353105E-11, -1.74102622E+04,
                       1.01296888E+01]),
                NASA([964.74, 5000.00],
                     [ 8.17853060E+00,  3.61030052E-03, -1.17846501E-06,
                       2.55817825E-10, -2.19837792E-14, -1.91007042E+04,
                      -1.68115450E+01])),
        transport=gas_transport(geom='nonlinear',
                                diam=4.2,
                                well_depth=400.0,
                                dipole=0.2,
                                rot_relax=1.0))

species(name='N2H4(105)',
        atoms='H:4 N:2',
        thermo=(NASA([100.00, 957.49],
                     [ 3.70157425E+00,  2.37948006E-03,  2.35183043E-05,
                      -2.95126494E-08,  1.08414983E-11,  1.03870701E+04,
                       6.00036914E+00]),
                NASA([957.49, 5000.00],
                     [ 4.76803589E+00,  8.58736145E-03, -2.91178199E-06,
                       5.20717874E-10, -3.70548324E-14,  9.69405552E+03,
                      -1.65081914E+00])),
        transport=gas_transport(geom='nonlinear',
                                diam=4.23,
                                well_depth=205.0,
                                polar=4.26,
                                rot_relax=1.5))

species(name='HNNN(243)',
        atoms='H:1 N:3',
        thermo=(NASA([100.00, 994.04],
                     [ 3.70307269E+00,  4.41114626E-03,  6.31614978E-06,
                      -1.03441412E-08,  3.98521079E-12,  3.37780448E+04,
                       6.16572863E+00]),
                NASA([994.04, 5000.00],
                     [ 4.96483694E+00,  4.54048687E-03, -1.73588099E-06,
                       3.25402451E-10, -2.34080802E-14,  3.32699584E+04,
                      -1.20791511E+00])),
        transport=gas_transport(geom='nonlinear',
                                diam=5.118,
                                well_depth=237.1))

species(name='N2O2(249)',
        atoms='N:2 O:2',
        thermo=(NASA([100.00, 977.06],
                     [ 3.16765084E+00,  1.27184498E-02,  7.75799443E-07,
                      -1.45169443E-08,  7.32117984E-12,  1.98964576E+04,
                       1.03782379E+01]),
                NASA([977.06, 5000.00],
                     [ 9.61831662E+00, -2.51544073E-04,  5.64018674E-08,
                       5.10669417E-11, -8.27783187E-15,  1.79944757E+04,
                      -2.38753303E+01])),
        transport=gas_transport(geom='nonlinear',
                                diam=4.687,
                                well_depth=531.4))

species(name='N4(261)',
        atoms='N:4',
        thermo=(NASA([100.00, 1321.94],
                     [ 3.22495419E+00,  1.49995486E-02, -1.48332186E-05,
                       7.08634168E-09, -1.31304870E-12,  2.39544334E+04,
                       6.68601727E+00]),
                NASA([1321.94, 5000.00],
                     [ 7.18702636E+00,  3.01088241E-03, -1.22971981E-06,
                       2.25966635E-10, -1.56413238E-14,  2.29069096E+04,
                      -1.35345043E+01])),
        transport=gas_transport(geom='nonlinear',
                                diam=4.687,
                                well_depth=531.4))

species(name='ONOOJ(265)',
        atoms='N:1 O:3',
        thermo=(NASA([100.00, 867.17],
                     [ 3.00799109E+00,  2.56959442E-02, -5.03706848E-05,
                       4.78973287E-08, -1.69750868E-11,  1.51683152E+04,
                       1.25755433E+01]),
                NASA([867.17, 5000.00],
                     [ 5.00461531E+00,  7.75547106E-03, -4.23599625E-06,
                       8.19644671E-10, -5.57666017E-14,  1.51502985E+04,
                       5.12028386E+00])),
        transport=gas_transport(geom='nonlinear',
                                diam=4.687,
                                well_depth=531.4))

species(name='N3O2(276)',
        atoms='N:3 O:2',
        thermo=(NASA([100.00, 1101.28],
                     [ 4.00269795E+00, -1.25654141E-03,  8.32771106E-06,
                      -8.61323977E-09,  2.73191458E-12,  1.94368210E+04,
                      -4.19392627E+00]),
                NASA([1101.28, 5000.00],
                     [ 4.36458392E+00,  1.42815468E-03, -7.75952695E-07,
                       1.95057164E-10, -1.61639253E-14,  1.91146022E+04,
                      -7.07576885E+00])),
        transport=gas_transport(geom='nonlinear',
                                diam=5.784,
                                well_depth=341.1))

species(name='H2NO2(281)',
        atoms='H:2 N:1 O:2',
        thermo=(NASA([100.00, 1492.31],
                     [ 3.52871003E+00,  1.13044067E-02, -6.90047182E-06,
                       2.18540053E-09, -3.02436947E-13,  1.76154664E+04,
                       1.00582539E+01]),
                NASA([1492.31, 5000.00],
                     [ 4.80895429E+00,  7.87286285E-03, -3.45127857E-06,
                       6.44541212E-10, -4.43062129E-14,  1.72333585E+04,
                       3.36928885E+00])),
        transport=gas_transport(geom='nonlinear',
                                diam=5.118,
                                well_depth=237.1))

species(name='ONOOH(287)',
        atoms='H:1 N:1 O:3',
        thermo=(NASA([100.00, 768.16],
                     [ 2.96303372E+00,  2.47517645E-02, -3.57816260E-05,
                       2.80287401E-08, -8.89431332E-12, -3.02582368E+03,
                       1.22924605E+01]),
                NASA([768.16, 5000.00],
                     [ 6.03640292E+00,  8.74633739E-03, -4.52435450E-06,
                       8.98581112E-10, -6.38218245E-14, -3.49794345E+03,
                      -1.72383293E+00])),
        transport=gas_transport(geom='nonlinear',
                                diam=4.687,
                                well_depth=531.4))

species(name='NONDO(341)',
        atoms='H:2 N:2 O:2',
        thermo=(NASA([10.00, 796.30],
                     [ 3.85316000E+00,  1.46183000E-02,  2.98635000E-06,
                      -1.74032000E-08,  9.11188000E-12,  8.67712000E+03,
                       8.68696000E+00]),
                NASA([796.30, 3000.00],
                     [ 5.07774000E+00,  1.47528000E-02, -9.10779000E-06,
                       2.63540000E-09, -2.91604000E-13,  8.28280000E+03,
                       1.80666000E+00])),
        transport=gas_transport(geom='nonlinear',
                                diam=4.687,
                                well_depth=531.4))

species(name='H4N4(446)',
        atoms='H:4 N:4',
        thermo=(NASA([100.00, 962.08],
                     [ 3.79845729E+00, -3.85722436E-03,  4.67733417E-05,
                      -5.63604860E-08,  2.07247582E-11,  7.78400552E+03,
                       3.70609769E+00]),
                NASA([962.08, 5000.00],
                     [ 6.64358924E+00,  5.75270250E-03, -1.63590654E-06,
                       3.46935532E-10, -2.97799786E-14,  6.24436618E+03,
                      -1.50665319E+01])),
        transport=gas_transport(geom='nonlinear',
                                diam=4.687,
                                well_depth=531.4))

species(name='ONONO(487)',
        atoms='N:2 O:3',
        thermo=(NASA([100.00, 1001.15],
                     [ 2.24879832E+00,  3.26009468E-02, -3.22935200E-05,
                       9.64974589E-09,  5.97917456E-13,  9.10294939E+03,
                       1.36637805E+01]),
                NASA([1001.15, 5000.00],
                     [ 1.37258253E+01, -1.18339367E-03,  2.39195022E-07,
                       2.92775458E-11, -7.01572557E-15,  6.19995803E+03,
                      -4.47406740E+01])),
        transport=gas_transport(geom='nonlinear',
                                diam=5.784,
                                well_depth=341.1))

species(name='NO2NO(936)',
        atoms='N:2 O:3',
        thermo=(NASA([100.00, 797.75],
                     [ 2.68868208E+00,  3.19241985E-02, -5.47792456E-05,
                       4.87680206E-08, -1.70322010E-11,  8.19040782E+03,
                       1.34212800E+01]),
                NASA([797.75, 5000.00],
                     [ 6.29749890E+00,  9.74450676E-03, -5.39457305E-06,
                       1.07961003E-09, -7.61158465E-14,  7.74459754E+03,
                      -2.35908207E+00])),
        transport=gas_transport(geom='nonlinear',
                                diam=5.784,
                                well_depth=341.1))

species(name='S(952)',
        atoms='H:2 N:2 O:3',
        thermo=(NASA([100.00, 1057.80],
                     [ 2.83976209E+00,  2.73784987E-02, -2.49352106E-05,
                       1.26676330E-08, -2.76750357E-12,  9.68081495E+03,
                       1.35062406E+01]),
                NASA([1057.80, 5000.00],
                     [ 6.18299532E+00,  1.47363836E-02, -7.00835697E-06,
                       1.36952064E-09, -9.73332138E-14,  8.97351505E+03,
                      -2.81081365E+00])),
        transport=gas_transport(geom='nonlinear',
                                diam=5.784,
                                well_depth=341.1))

species(name='H2N2O(977)',
        atoms='H:2 N:2 O:1',
        thermo=(NASA([100.00, 961.56],
                     [ 3.77568239E+00, -3.05213009E-03,  4.06077864E-05,
                      -5.07231013E-08,  1.89900053E-11, -6.82668443E+03,
                       1.56832321E+00]),
                NASA([961.56, 5000.00],
                     [ 7.24117465E+00,  3.03800804E-03, -8.81408961E-07,
                       2.20314979E-10, -2.11468940E-14, -8.44115002E+03,
                      -1.99443529E+01])),
        transport=gas_transport(geom='nonlinear',
                                diam=5.118,
                                well_depth=237.1))

species(name='X(1)',
        atoms='X:1',
        thermo=(NASA([298.00, 1000.00],
                     [ 0.00000000E+00,  0.00000000E+00,  0.00000000E+00,
                       0.00000000E+00,  0.00000000E+00,  0.00000000E+00,
                       0.00000000E+00]),
                NASA([1000.00, 3000.00],
                     [ 0.00000000E+00,  0.00000000E+00,  0.00000000E+00,
                       0.00000000E+00,  0.00000000E+00,  0.00000000E+00,
                       0.00000000E+00])))

species(name='NH3_X(8)',
        atoms='H:3 N:1 X:1',
        thermo=(NASA([298.00, 1000.00],
                     [ 1.31496774E+00,  1.46998289E-02, -1.30679071E-05,