units(length='cm', time='s', quantity='mol', act_energy='kcal/mol')

ideal_gas(name='gas',
          elements="H D T C Ci O Oi N Ne Ar He Si S F Cl Br I X",
          species="""He      Ar      Ne      O2(2)   H2O(3)  N2(4)   NO(5)
                     NH3(6)  N2O(7)""",
          transport='Mix',
          initial_state=state(temperature=300.0, pressure=OneAtm))

ideal_interface(name='surface1',
                elements="H D T C Ci O Oi N Ne Ar He Si S F Cl Br I X",
                species="""X(1)        HX(9)       OX(10)      HOX(13)
                          H2OX(14)    N2X2(25)    NN_ads(26)  NO_ads(27)
                          H2NX(28)    H3NX(29)    NH_ads(51)  N_ads(64)
                          HNOX(67)    NO2JX(74)   NOX2(82)""",
                site_density=2.483e-09,
                phases="gas",
          reactions='all',
                initial_state=state(temperature=300.0, pressure=OneAtm))

#-------------------------------------------------------------------------------
# Element data
#-------------------------------------------------------------------------------

element(symbol='Ci', atomic_mass=13.003)
element(symbol='D', atomic_mass=2.014)
element(symbol='Oi', atomic_mass=17.999)
element(symbol='T', atomic_mass=3.016)
element(symbol='X', atomic_mass=195.083)
#-------------------------------------------------------------------------------
# Species data
#-------------------------------------------------------------------------------

species(name='He',
        atoms='He:1',
        thermo=(NASA([200.00, 1000.00],
                     [ 2.50000000E+00,  0.00000000E+00,  0.00000000E+00,
                       0.00000000E+00,  0.00000000E+00, -7.45375000E+02,
                       9.28724000E-01]),
                NASA([1000.00, 6000.00],
                     [ 2.50000000E+00,  0.00000000E+00,  0.00000000E+00,
                       0.00000000E+00,  0.00000000E+00, -7.45375000E+02,
                       9.28724000E-01])),
        transport=gas_transport(geom='atom',
                                diam=2.576,
                                well_depth=10.2))

species(name='Ar',
        atoms='Ar:1',
        thermo=(NASA([200.00, 1000.00],
                     [ 2.50000000E+00,  0.00000000E+00,  0.00000000E+00,
                       0.00000000E+00,  0.00000000E+00, -7.45375000E+02,
                       4.37967000E+00]),
                NASA([1000.00, 6000.00],
                     [ 2.50000000E+00,  0.00000000E+00,  0.00000000E+00,
                       0.00000000E+00,  0.00000000E+00, -7.45375000E+02,
                       4.37967000E+00])),
        transport=gas_transport(geom='atom',
                                diam=3.33,
                                well_depth=136.501))

species(name='Ne',
        atoms='Ne:1',
        thermo=(NASA([200.00, 1000.00],
                     [ 2.50000000E+00,  0.00000000E+00,  0.00000000E+00,
                       0.00000000E+00,  0.00000000E+00, -7.45375000E+02,
                       3.35532000E+00]),
                NASA([1000.00, 6000.00],
                     [ 2.50000000E+00,  0.00000000E+00,  0.00000000E+00,
                       0.00000000E+00,  0.00000000E+00, -7.45375000E+02,
                       3.35532000E+00])),
        transport=gas_transport(geom='atom',
                                diam=3.758,
                                well_depth=148.6))

species(name='O2(2)',
        atoms='O:2',
        thermo=(NASA([100.00, 1074.56],
                     [ 3.53732181E+00, -1.21570928E-03,  5.31617817E-06,
                      -4.89443412E-09,  1.45845038E-12, -1.03858846E+03,
                       4.68368407E+00]),
                NASA([1074.56, 5000.00],
                     [ 3.15382426E+00,  1.67803800E-03, -7.69971009E-07,
                       1.51274711E-10, -1.08781798E-14, -1.04081879E+03,
                       6.16753877E+00])),
        transport=gas_transport(geom='linear',
                                diam=3.458,
                                well_depth=107.4,
                                polar=1.6,
                                rot_relax=3.8))

species(name='H2O(3)',
        atoms='H:2 O:1',
        thermo=(NASA([100.00, 1130.25],
                     [ 4.05763654E+00, -7.87943800E-04,  2.90880094E-06,
                      -1.47521964E-09,  2.12854962E-13, -3.02815867E+04,
                      -3.11366607E-01]),
                NASA([1130.25, 5000.00],
                     [ 2.84324565E+00,  2.75109326E-03, -7.81035842E-07,
                       1.07244643E-10, -5.79400410E-15, -2.99586106E+04,
                       5.91044721E+00])),
        transport=gas_transport(geom='nonlinear',
                                diam=2.605,
                                well_depth=572.402,
                                dipole=1.844,
                                rot_relax=4.0))

species(name='N2(4)',
        atoms='N:2',
        thermo=(NASA([200.00, 1000.00],
                     [ 3.53101000E+00, -1.23661000E-04, -5.02999000E-07,
                       2.43531000E-09, -1.40881000E-12, -1.04698000E+03,
                       2.96747000E+00]),
                NASA([1000.00, 6000.00],
                     [ 2.95258000E+00,  1.39690000E-03, -4.92632000E-07,
                       7.86010000E-11, -4.60755000E-15, -9.23949000E+02,
                       5.87189000E+00])),
        transport=gas_transport(geom='linear',
                                diam=3.621,
                                well_depth=97.53,
                                polar=1.76,
                                rot_relax=4.0))

species(name='NO(5)',
        atoms='N:1 O:1',
        thermo=(NASA([100.00, 1407.02],
                     [ 3.55718148E+00, -8.90571060E-04,  2.98553150E-06,
                      -2.08687561E-09,  4.65949875E-13,  9.95239684E+03,
                       4.55251498E+00]),
                NASA([1407.02, 5000.00],
                     [ 2.93798085E+00,  1.75424119E-03, -7.77004101E-07,
                       1.42651639E-10, -9.57838144E-15,  1.00390907E+04,
                       7.44011605E+00])),
        transport=gas_transport(geom='linear',
                                diam=3.621,
                                well_depth=97.53,
                                polar=1.76,
                                rot_relax=4.0))

species(name='NH3(6)',
        atoms='H:3 N:1',
        thermo=(NASA([100.00, 993.33],
                     [ 4.09068772E+00, -2.07163708E-03,  1.14752156E-05,
                      -9.47500324E-09,  2.61222190E-12, -6.69036403E+03,
                       2.22530808E-02]),
                NASA([993.33, 5000.00],
                     [ 2.12302067E+00,  6.45658953E-03, -2.31618467E-06,
                       3.93870042E-10, -2.58108324E-14, -6.32928862E+03,
                       9.35177287E+00])),
        transport=gas_transport(geom='nonlinear',
                                diam=2.92,
                                well_depth=481.001,
                                dipole=1.47,
                                rot_relax=10.0))

species(name='N2O(7)',
        atoms='N:2 O:1',
        thermo=(NASA([100.00, 1026.61],
                     [ 3.22183134E+00,  4.41472209E-03,  2.54399535E-06,
                      -6.06060786E-09,  2.45086810E-12,  8.76576984E+03,
                       6.72929523E+00]),
                NASA([1026.61, 5000.00],
                     [ 4.61743859E+00,  3.00863157E-03, -1.29223139E-06,
                       2.55912332E-10, -1.88712260E-14,  8.26676745E+03,
                      -1.07508656E+00])),
        transport=gas_transport(geom='linear',
                                diam=3.828,
                                well_depth=232.401,
                                rot_relax=1.0))

species(name='X(1)',
        atoms='X:1',
        thermo=(NASA([298.00, 1000.00],
                     [ 0.00000000E+00,  0.00000000E+00,  0.00000000E+00,
                       0.00000000E+00,  0.00000000E+00,  0.00000000E+00,
                       0.00000000E+00]),
                NASA([1000.00, 3000.00],
                     [ 0.00000000E+00,  0.00000000E+00,  0.00000000E+00,
                       0.00000000E+00,  0.00000000E+00,  0.00000000E+00,
                       0.00000000E+00])))

species(name='HX(9)',
        atoms='H:1 X:1',
        thermo=(NASA([298.00, 1000.00],
                     [-1.96702988E+00,  1.67920714E-02, -2.50314139E-05,
                       1.80485455E-08, -5.11491197E-12, -3.21277026E+03,
                       7.68211257E+00]),
                NASA([1000.00, 2000.00],
                     [ 2.71968546E+00, -1.07696656E-03,  2.00193294E-06,
                      -1.12865983E-09,  2.11269165E-13, -4.24701712E+03,
                      -1.52793490E+01])))

species(name='OX(10)',
        atoms='O:1 X:1',
        thermo=(NASA([298.00, 1000.00],
                     [ 1.79722382E-01,  1.25453156E-02, -2.29924588E-05,
                       1.94187177E-08, -6.22414099E-12, -1.73402246E+04,
                      -2.22409728E+00]),
                NASA([1000.00, 2000.00],
                     [ 2.92050897E+00, -2.70455589E-04,  5.15610634E-07,
                      -2.93911213E-10,  5.54030466E-14, -1.78369003E+04,
                      -1.50940536E+01])))

species(name='HOX(13)',
        atoms='H:1 O:1 X:1',
        thermo=(NASA([298.00, 1000.00],
                     [ 1.07348583E+00,  1.72652206E-02, -3.17712232E-05,
                       2.71536568E-08, -8.69449304E-12, -1.96002909E+04,
                      -5.65622336E+00]),
                NASA([1000.00, 2000.00],
                     [ 5.01870328E+00, -1.35424298E-03,  2.27686310E-06,
                      -1.09407298E-09,  1.79396487E-13, -2.02979842E+04,
                      -2.41159621E+01])))

species(name='H2OX(14)',
        atoms='H:2 O:1 X:1',
        thermo=(NASA([298.00, 1000.00],
                     [ 2.53777266E+00,  9.45372010E-03, -1.41325664E-05,
                       1.16730945E-08, -3.67657640E-12, -3.27590463E+04,
                      -5.36548561E+00]),
                NASA([1000.00, 2000.00],
                     [ 5.84789466E+00, -3.31526816E-03,  5.62018785E-06,
                      -2.75864893E-09,  4.61279066E-13, -3.34885608E+04,
                      -2.15622699E+01])))

species(name='N2X2(25)',
        atoms='N:2 X:2',
        thermo=(NASA([100.00, 899.07],
                     [ 3.17988900E+00,  2.16745972E-03,  1.49948526E-05,
                      -2.58978952E-08,  1.15481723E-11, -1.28962753E+04,
                      -1.75805654E+01]),
                NASA([899.07, 5000.00],
                     [ 7.25771166E+00, -3.06811296E-03,  2.19621155E-06,
                      -4.40293987E-10,  2.93499924E-14, -1.41511722E+04,
                      -3.97208822E+01])),
        size=2.0)

species(name='NN_ads(26)',
        atoms='N:2 X:1',
        thermo=(NASA([298.00, 1000.00],
                     [ 4.13993917E+00, -9.92755910E-04,  1.76704033E-06,
                      -1.57884342E-10, -3.64206712E-13, -4.38199802E+03,
                      -7.98299353E+00]),
                NASA([1000.00, 2000.00],
                     [ 4.38660517E+00, -1.50692391E-03,  2.67640594E-06,
                      -1.41531803E-09,  2.51363379E-13, -4.48345747E+03,
                      -9.36216462E+00])))

species(name='NO_ads(27)',
        atoms='N:1 O:1 X:1',
        thermo=(NASA([298.00, 1000.00],
                     [ 1.91253452E+00,  1.19742948E-02, -1.74150740E-05,
                       1.31050130E-08, -3.98440482E-12, -1.39133497E+04,
                      -9.50920619E+00]),
                NASA([1000.00, 2000.00],
                     [ 5.58200160E+00, -1.44698193E-03,  2.66840782E-06,
                      -1.48667738E-09,  2.75613483E-13, -1.47707534E+04,
                      -2.76785587E+01])))

species(name='H2NX(28)',
        atoms='H:2 N:1 X:1',
        thermo=(NASA([298.00, 1000.00],
                     [-1.89010759E+00,  2.86217997E-02, -4.34545237E-05,
                       3.34143285E-08, -9.99500135E-12, -4.87893528E+03,
                       6.34997611E+00]),
                NASA([1000.00, 2000.00],
                     [ 6.67968147E+00, -4.64266766E-03,  8.12871035E-06,
                      -4.20436074E-09,  7.35132153E-13, -6.75225639E+03,
                      -3.55181494E+01])))

species(name='H3NX(29)',
        atoms='H:3 N:1 X:1',
        thermo=(NASA([298.00, 1000.00],
                     [ 1.31496774E+00,  1.46998289E-02, -1.30679071E-05,
                       6.99360870E-09, -1.52920905E-12, -1.45305774E+04,
                      -4.29992592E+00]),
                NASA([1000.00, 2000.00],
                     [ 8.39460262E+00, -7.22640455E-03,  1.26169819E-05,
                      -6.50952664E-09,  1.13563586E-12, -1.63659104E+04,
                      -4.02856883E+01])))

species(name='NH_ads(51)',
        atoms='H:1 N:1 X:1',
        thermo=(NASA([298.00, 1000.00],
                     [-2.68663098E+00,  2.89197486E-02, -4.76398566E-05,
                       3.77368064E-08, -1.14895177E-11, -1.39698939E+03,
                       9.81076735E+00]),
                NASA([1000.00, 2000.00],
                     [ 4.82700699E+00, -2.46380210E-03,  4.35378855E-06,
                      -2.27895186E-09,  4.02508146E-13, -2.92453268E+03,
                      -2.63392973E+01])))

species(name='N_ads(64)',
        atoms='N:1 X:1',
        thermo=(NASA([298.00, 1000.00],
                     [-8.62158075E-01,  1.65321723E-02, -2.95187453E-05,
                       2.44741387E-08, -7.73894837E-12,  4.56391760E+03,
                       2.27263793E+00]),
                NASA([1000.00, 2000.00],
                     [ 2.87812725E+00, -4.32547150E-04,  8.18868468E-07,
                      -4.65641564E-10,  8.76522110E-14,  3.86307901E+03,
                      -1.54118153E+01])))

species(name='HNOX(67)',
        atoms='H:1 N:1 O:1 X:1',
        thermo=(NASA([298.00, 1000.00],
                     [ 1.08095806E+00,  1.29219267E-02, -1.33374540E-05,
                       7.75158679E-09, -1.92612419E-12, -8.13728821E+03,
                       6.08546053E-01]),
                NASA([1000.00, 2000.00],
                     [ 6.47671505E+00, -3.95793547E-03,  7.09299979E-06,
                      -3.80627447E-09,  6.85388388E-13, -9.53610261E+03,
                      -2.67996453E+01])))

species(name='NO2JX(74)',
        atoms='N:1 O:2 X:1',
        thermo=(NASA([100.00, 944.78],
                     [ 3.77761273E+00, -2.42435523E-04,  2.27925148E-05,
                      -3.07622678E-08,  1.20227209E-11, -1.46114223E+04,
                      -1.04281554E+01]),
                NASA([944.78, 5000.00],
                     [ 6.56032390E+00,  1.06476421E-03, -6.32224278E-08,
                       2.86672424E-11, -4.96825971E-15, -1.57213855E+04,
                      -2.67865327E+01])))

species(name='NOX2(82)',
        atoms='N:1 O:1 X:2',
        thermo=(NASA([298.00, 1000.00],
                     [ 3.23151905E+00,  6.07214925E-03, -7.46345407E-06,
                       5.43212687E-09, -1.71496758E-12, -1.16357520E+04,
                      -1.30278030E+01]),
                NASA([1000.00, 2000.00],
                     [ 5.54859951E+00, -1.48179602E-03,  2.71394293E-06,
                      -1.49952005E-09,  2.76147146E-13, -1.22336367E+04,
                      -2.47556107E+01])),
        size=2.0)

#-------------------------------------------------------------------------------
# Reaction data
#-------------------------------------------------------------------------------

# surface1 Reaction 1
surface_reaction('X(1) + NH3(6) <=> H3NX(29)', stick(1.000000e+00, 0.0, 0.0))

# surface1 Reaction 2
surface_reaction('X(1) + X(1) + O2(2) <=> OX(10) + OX(10)', [1.890000e+21, -0.5, 0.0])

# surface1 Reaction 3
surface_reaction('OX(10) + H3NX(29) <=> HOX(13) + H2NX(28)', [1.010000e+21, 0.0, 16.143])

# surface1 Reaction 4
surface_reaction('X(1) + H2O(3) <=> H2OX(14)', stick(7.500000e-01, 0.0, 0.0))

# surface1 Reaction 5
surface_reaction('OX(10) + H2OX(14) <=> HOX(13) + HOX(13)', [1.000000e+20, 0.0, 10.301])

# surface1 Reaction 6
surface_reaction('HOX(13) + H3NX(29) <=> H2OX(14) + H2NX(28)', [1.970000e+22, 0.0, 8.072])

# surface1 Reaction 7
surface_reaction('OX(10) + H2NX(28) <=> HOX(13) + NH_ads(51)', [2.220000e+21, 0.0, 18.68])

# surface1 Reaction 8
surface_reaction('H2NX(28) + H2NX(28) <=> NH_ads(51) + H3NX(29)', [1.160000e+20, 0.667, 10.378],
                 options='duplicate')

# surface1 Reaction 9
surface_reaction('HOX(13) + H2NX(28) <=> NH_ads(51) + H2OX(14)', [6.040000e+21, 0.0, 0.231])

# surface1 Reaction 10
surface_reaction('H2NX(28) + H2NX(28) <=> NH_ads(51) + H3NX(29)', [1.160000e+20, 0.667, 10.378],
                 options='duplicate')

# surface1 Reaction 11
surface_reaction('OX(10) + NH_ads(51) <=> X(1) + HNOX(67)', [4.030000e+21, 0.0, 21.705],
                 options='duplicate')

# surface1 Reaction 12
surface_reaction('OX(10) + NH_ads(51) <=> X(1) + HNOX(67)', [4.030000e+21, 0.0, 21.705],
                 options='duplicate')

# surface1 Reaction 13
surface_reaction('X(1) + NO(5) <=> NO_ads(27)', stick(1.492000e-06, 0.0, 0.0))

# surface1 Reaction 14
surface_reaction('OX(10) + HNOX(67) <=> NO_ads(27) + HOX(13)', [8.050000e+23, 0.0, 2.82])

# surface1 Reaction 15
surface_reaction('HNOX(67) + H2NX(28) <=> NO_ads(27) + H3NX(29)', [8.450000e+19, 0.156, 9.686])

# surface1 Reaction 16
surface_reaction('HOX(13) + HNOX(67) <=> NO_ads(27) + H2OX(14)', [6.566667e+21, 0.0, 8.072])

# surface1 Reaction 17
surface_reaction('NH_ads(51) + HNOX(67) <=> NO_ads(27) + H2NX(28)', [4.158951e+17, 0.82, 21.912])

# surface1 Reaction 18
surface_reaction('X(1) + NO_ads(27) <=> NOX2(82)', [4.270000e+19, 0.549, 4.933])

# surface1 Reaction 19
surface_reaction('OX(10) + NH_ads(51) <=> N_ads(64) + HOX(13)', [3.140000e+21, 0.0, 36.899])

# surface1 Reaction 20
surface_reaction('NH_ads(51) + H2NX(28) <=> N_ads(64) + H3NX(29)', [3.870000e+21, 0.0, 22.6],
                 options='duplicate')

# surface1 Reaction 21
surface_reaction('HOX(13) + NH_ads(51) <=> N_ads(64) + H2OX(14)', [2.380000e+21, 0.0, 9.455],
                 options='duplicate')

# surface1 Reaction 22
surface_reaction('N_ads(64) + H2NX(28) <=> NH_ads(51) + NH_ads(51)', [2.220000e+21, 0.0, 18.68])

# surface1 Reaction 23
surface_reaction('N_ads(64) + HNOX(67) <=> NO_ads(27) + NH_ads(51)', [3.176748e+18, 0.209, 28.348])

# surface1 Reaction 24
surface_reaction('NOX2(82) <=> OX(10) + N_ads(64)', [4.390000e+11, 0.299, 18.219])

# surface1 Reaction 25
surface_reaction('NH_ads(51) + H2NX(28) <=> N_ads(64) + H3NX(29)', [3.870000e+21, 0.0, 22.6],
                 options='duplicate')

# surface1 Reaction 26
surface_reaction('HOX(13) + NH_ads(51) <=> N_ads(64) + H2OX(14)', [2.380000e+21, 0.0, 9.455],
                 options='duplicate')

# surface1 Reaction 27
surface_reaction('X(1) + X(1) + N2(4) <=> N2X2(25)', stick(1.460000e-01, 0.201, 0.0))

# surface1 Reaction 28
surface_reaction('N_ads(64) + NOX2(82) <=> OX(10) + N2X2(25)', [3.534912e+21, -0.017, 14.114])

# surface1 Reaction 29
surface_reaction('N2X2(25) <=> N_ads(64) + N_ads(64)', [4.390000e+11, 0.299, 43.626])

# surface1 Reaction 30
surface_reaction('X(1) + N2(4) <=> NN_ads(26)', stick(5.500000e-05, 0.0, 0.0))

# surface1 Reaction 31
surface_reaction('X(1) + NN_ads(26) <=> N2X2(25)', [2.000000e+19, 0.0, 0.0])

# surface1 Reaction 32
surface_reaction('OX(10) + NO_ads(27) <=> X(1) + NO2JX(74)', [1.776000e+22, 0.0, 32.492])

# surface1 Reaction 33
surface_reaction('OX(10) + HX(9) <=> X(1) + HOX(13)', [1.280000e+21, 0.0, 2.677])

# surface1 Reaction 34
surface_reaction('HX(9) + HOX(13) <=> X(1) + H2OX(14)', [2.040000e+21, 0.0, 15.827])

# surface1 Reaction 35
surface_reaction('X(1) + X(1) + H2O(3) <=> HX(9) + HOX(13)', stick(6.093000e-02, 0.077, 14.803))

# surface1 Reaction 36
surface_reaction('X(1) + X(1) + NH3(6) <=> HX(9) + H2NX(28)', stick(9.139000e-02, 0.077, 4.5))

# surface1 Reaction 37
surface_reaction('X(1) + H3NX(29) <=> HX(9) + H2NX(28)', [2.255000e+20, 0.0, 22.228])

# surface1 Reaction 38
surface_reaction('X(1) + H2NX(28) <=> HX(9) + NH_ads(51)', [2.014000e+21, 0.0, 26.291])

# surface1 Reaction 39
surface_reaction('X(1) + NH_ads(51) <=> N_ads(64) + HX(9)', [2.089970e+21, 0.0, 28.203])

# surface1 Reaction 40
surface_reaction('X(1) + HNOX(67) <=> NO_ads(27) + HX(9)', [7.516667e+19, 0.0, 22.228])

# surface1 Reaction 41
surface_reaction('OX(10) + HNOX(67) <=> NO2JX(74) + HX(9)', [2.572451e+18, 0.428, 15.203])
